
     RDKit          2D

 42 47  0  0  0  0  0  0  0  0999 V2000
   -1.8208    0.4500    0.0000 N   0  0  0  0  0  0  0  0  0  0  0  0
   -2.3042   -0.2208    0.0000 C   0  0  0  0  0  0  0  0  0  0  0  0
   -1.8208   -0.8875    0.0000 N   0  0  0  0  0  0  0  0  0  0  0  0
   -5.0083    3.3167    0.0000 C   0  0  0  0  0  0  0  0  0  0  0  0
   -4.1875    3.2292    0.0000 N   0  0  0  0  0  0  0  0  0  0  0  0
   -1.0375    0.1917    0.0000 C   0  0  0  0  0  0  0  0  0  0  0  0
   -0.3208    0.6042    0.0000 C   0  0  0  0  0  0  0  0  0  0  0  0
   -5.1792    4.1208    0.0000 N   0  0  0  0  0  0  0  0  0  0  0  0
    1.1083    3.0792    0.0000 C   0  0  0  0  0  0  0  0  0  0  0  0
    2.0000    4.0708    0.0000 C   0  0  0  0  0  0  0  0  0  0  0  0
   -1.0375   -0.6333    0.0000 C   0  0  0  0  0  0  0  0  0  0  0  0
   -3.8500    3.9833    0.0000 C   0  0  0  0  0  0  0  0  0  0  0  0
    1.1917    3.9000    0.0000 O   0  0  0  0  0  0  0  0  0  0  0  0
    2.4125    3.3583    0.0000 O   0  0  0  0  0  0  0  0  0  0  0  0
    1.8625    2.7458    0.0000 C   0  0  0  0  0  0  0  0  0  0  0  0
   -5.5583    2.7042    0.0000 C   0  0  0  0  0  0  0  0  0  0  0  0
   -0.3208    1.4292    0.0000 C   0  0  0  0  0  0  0  0  0  0  0  0
   -4.4625    4.5333    0.0000 O   0  0  0  0  0  0  0  0  0  0  0  0
   -5.3042    1.9208    0.0000 C   0  0  0  0  0  0  0  0  0  0  0  0
   -2.0750    1.2333    0.0000 C   0  0  0  0  0  0  0  0  0  0  0  0
    0.3917    1.8417    0.0000 O   0  0  0  0  0  0  0  0  0  0  0  0
    0.3917    2.6667    0.0000 C   0  0  0  0  0  0  0  0  0  0  0  0
   -4.4958    1.7458    0.0000 C   0  0  0  0  0  0  0  0  0  0  0  0
    2.3375    4.8208    0.0000 O   0  0  0  0  0  0  0  0  0  0  0  0
   -3.0417    4.1500    0.0000 O   0  0  0  0  0  0  0  0  0  0  0  0
   -1.0375    1.8417    0.0000 O   0  0  0  0  0  0  0  0  0  0  0  0
   -3.1292   -0.2208    0.0000 O   0  0  0  0  0  0  0  0  0  0  0  0
   -4.2417    0.9625    0.0000 C   0  0  0  0  0  0  0  0  0  0  0  0
   -3.9458    2.3625    0.0000 C   0  0  0  0  0  0  0  0  0  0  0  0
   -2.8833    1.4042    0.0000 C   0  0  0  0  0  0  0  0  0  0  0  0
    0.3917    0.1917    0.0000 C   0  0  0  0  0  0  0  0  0  0  0  0
   -3.4333    0.7917    0.0000 C   0  0  0  0  0  0  0  0  0  0  0  0
   -3.1375    2.1875    0.0000 C   0  0  0  0  0  0  0  0  0  0  0  0
   -0.3208   -1.0458    0.0000 C   0  0  0  0  0  0  0  0  0  0  0  0
    2.0333    1.9375    0.0000 C   0  0  0  0  0  0  0  0  0  0  0  0
   -6.3625    2.8750    0.0000 C   0  0  0  0  0  0  0  0  0  0  0  0
   -5.8542    1.3083    0.0000 C   0  0  0  0  0  0  0  0  0  0  0  0
    0.3917   -0.6333    0.0000 C   0  0  0  0  0  0  0  0  0  0  0  0
   -3.5417   -0.9333    0.0000 C   0  0  0  0  0  0  0  0  0  0  0  0
   -6.9125    2.2625    0.0000 C   0  0  0  0  0  0  0  0  0  0  0  0
   -6.6583    1.4792    0.0000 C   0  0  0  0  0  0  0  0  0  0  0  0
   -4.3667   -0.9333    0.0000 C   0  0  0  0  0  0  0  0  0  0  0  0
  2  1  1  0
  3  2  2  0
  4 16  1  0
  5  4  1  0
  6  1  1  0
  7  6  2  0
  8  4  2  0
  9 22  1  0
 10 13  1  0
 11  6  1  0
 12  5  1  0
 13  9  1  0
 14 15  1  0
 15  9  2  0
 16 19  1  0
 17  7  1  0
 18  8  1  0
 19 23  1  0
 20  1  1  0
 21 17  1  0
 22 21  1  0
 23 28  1  0
 24 10  2  0
 25 12  2  0
 26 17  2  0
 27  2  1  0
 28 32  2  0
 29 33  1  0
 30 20  1  0
 31  7  1  0
 32 30  1  0
 33 30  2  0
 34 11  2  0
 35 15  1  0
 36 16  2  0
 37 19  2  0
 38 34  1  0
 39 27  1  0
 40 41  2  0
 41 37  1  0
 42 39  1  0
  3 11  1  0
 29 23  2  0
 38 31  2  0
 14 10  1  0
 36 40  1  0
 18 12  1  0
M  END


> <chembl_id>
CHEMBL2028661

> <chembl_pref_name>
AZILSARTAN MEDOXOMIL

$$$$

     RDKit          2D

 30 32  0  0  1  0  0  0  0  0999 V2000
    2.3500   -0.0292    0.0000 N   0  0  0  0  0  0  0  0  0  0  0  0
    1.5375   -0.3292    0.0000 C   0  0  0  0  0  0  0  0  0  0  0  0
    2.8667   -0.7500    0.0000 C   0  0  0  0  0  0  0  0  0  0  0  0
    2.6917    0.7458    0.0000 N   0  0  0  0  0  0  0  0  0  0  0  0
    0.8000    0.1583    0.0000 C   0  0  0  0  0  0  0  0  0  0  0  0
    2.6125   -1.5875    0.0000 C   0  0  0  0  0  0  0  0  0  0  0  0
    0.0375   -0.2667    0.0000 N   0  0  0  0  0  0  0  0  0  0  0  0
   -0.7333    1.0958    0.0000 C   0  0  0  0  0  0  0  0  0  0  0  0
   -0.7333    0.1958    0.0000 C   0  0  0  0  0  0  0  0  0  0  0  0
    1.5375   -1.1875    0.0000 O   0  0  0  0  0  0  0  0  0  0  0  0
    1.7792   -1.8292    0.0000 O   0  0  0  0  0  0  0  0  0  0  0  0
    0.0542    1.5583    0.0000 O   0  0  0  0  0  0  0  0  0  0  0  0
   -1.5083   -0.2667    0.0000 C   0  0  0  0  0  0  0  0  0  0  0  0
    3.1792   -2.1542    0.0000 O   0  0  0  0  0  0  0  0  0  0  0  0
    3.7292   -0.6292    0.0000 C   0  0  0  0  0  0  0  0  0  0  0  0
   -1.5208    1.5583    0.0000 O   0  0  0  0  0  0  0  0  0  0  0  0
   -2.2958    0.1750    0.0000 C   0  0  0  0  0  0  0  0  0  0  0  0
    2.2250    1.6125    0.0000 C   0  0  0  0  0  0  0  0  0  0  0  0
    3.5625    0.8625    0.0000 C   0  0  0  0  0  0  0  0  0  0  0  0
   -3.0708   -0.2792    0.0000 C   0  0  0  0  0  0  0  0  0  0  0  0
    0.7125    1.0583    0.0000 C   0  0  0  0  0  0  0  0  0  0  0  0
    4.0917    0.1708    0.0000 C   0  0  0  0  0  0  0  0  0  0  0  0
    1.3792    1.6750    0.0000 C   0  0  0  0  0  0  0  0  0  0  0  0
   -2.3208    1.1125    0.0000 C   0  0  0  0  0  0  0  0  0  0  0  0
   -3.0708   -1.1875    0.0000 C   0  0  0  0  0  0  0  0  0  0  0  0
   -3.8375    0.1750    0.0000 C   0  0  0  0  0  0  0  0  0  0  0  0
   -3.1208    1.5583    0.0000 C   0  0  0  0  0  0  0  0  0  0  0  0
   -3.8375   -1.6417    0.0000 C   0  0  0  0  0  0  0  0  0  0  0  0
   -4.5958   -0.2875    0.0000 C   0  0  0  0  0  0  0  0  0  0  0  0
   -4.5958   -1.1875    0.0000 C   0  0  0  0  0  0  0  0  0  0  0  0
  2  1  1  0
  3  1  1  0
  4  1  1  0
  5  2  1  0
  3  6  1  1
  5  7  1  1
  9  8  1  1
  9  7  1  0
 10  2  2  0
 11  6  2  0
 12  8  2  0
 13  9  1  0
 14  6  1  0
 15  3  1  0
 16  8  1  0
 17 13  1  0
 18  4  1  0
 19  4  1  0
 20 17  1  0
 21  5  1  0
 22 19  1  0
 23 18  1  0
 24 16  1  0
 25 20  2  0
 26 20  1  0
 27 24  1  0
 28 25  1  0
 29 26  2  0
 30 29  1  0
 15 22  1  0
 23 21  1  0
 28 30  2  0
M  END


> <chembl_id>
CHEMBL515606

> <chembl_pref_name>
CILAZAPRIL

$$$$

     RDKit          2D

 41 45  0  0  0  0  0  0  0  0999 V2000
    3.1917   -2.8667    0.0000 C   0  0  0  0  0  0  0  0  0  0  0  0
    3.4042   -2.1917    0.0000 C   0  0  0  0  0  0  0  0  0  0  0  0
    3.7667   -3.2792    0.0000 N   0  0  0  0  0  0  0  0  0  0  0  0
    4.1167   -2.1917    0.0000 N   0  0  0  0  0  0  0  0  0  0  0  0
    4.3542   -2.8667    0.0000 C   0  0  0  0  0  0  0  0  0  0  0  0
    6.9417   -4.4042    0.0000 C   0  0  0  0  0  0  0  0  0  0  0  0
    6.5917   -3.2917    0.0000 N   0  0  0  0  0  0  0  0  0  0  0  0
    0.8042   -2.8667    0.0000 C   0  0  0  0  0  0  0  0  0  0  0  0
    6.3542   -4.0167    0.0000 N   0  0  0  0  0  0  0  0  0  0  0  0
    7.3417   -3.2917    0.0000 N   0  0  0  0  0  0  0  0  0  0  0  0
   -0.3208   -2.9125    0.0000 C   0  0  0  0  0  0  0  0  0  0  0  0
    0.2417   -3.3167    0.0000 O   0  0  0  0  0  0  0  0  0  0  0  0
    2.5917   -3.2167    0.0000 C   0  0  0  0  0  0  0  0  0  0  0  0
   -0.1208   -2.2667    0.0000 O   0  0  0  0  0  0  0  0  0  0  0  0
    7.5417   -4.0417    0.0000 N   0  0  0  0  0  0  0  0  0  0  0  0
    0.5917   -2.2667    0.0000 C   0  0  0  0  0  0  0  0  0  0  0  0
    6.9417   -5.0542    0.0000 C   0  0  0  0  0  0  0  0  0  0  0  0
    2.7875   -1.8417    0.0000 C   0  0  0  0  0  0  0  0  0  0  0  0
    6.3042   -5.4167    0.0000 C   0  0  0  0  0  0  0  0  0  0  0  0
    3.7792   -3.9792    0.0000 C   0  0  0  0  0  0  0  0  0  0  0  0
    2.0042   -2.8667    0.0000 O   0  0  0  0  0  0  0  0  0  0  0  0
    1.4042   -3.2167    0.0000 C   0  0  0  0  0  0  0  0  0  0  0  0
    5.6667   -5.0667    0.0000 C   0  0  0  0  0  0  0  0  0  0  0  0
   -0.9958   -3.1333    0.0000 O   0  0  0  0  0  0  0  0  0  0  0  0
    2.5917   -3.9167    0.0000 O   0  0  0  0  0  0  0  0  0  0  0  0
    5.0292   -5.4417    0.0000 C   0  0  0  0  0  0  0  0  0  0  0  0
    5.6667   -4.3417    0.0000 C   0  0  0  0  0  0  0  0  0  0  0  0
    4.4042   -4.3417    0.0000 C   0  0  0  0  0  0  0  0  0  0  0  0
    2.1708   -2.1958    0.0000 O   0  0  0  0  0  0  0  0  0  0  0  0
    4.9667   -3.2292    0.0000 C   0  0  0  0  0  0  0  0  0  0  0  0
    5.0292   -3.9667    0.0000 C   0  0  0  0  0  0  0  0  0  0  0  0
    4.4042   -5.0667    0.0000 C   0  0  0  0  0  0  0  0  0  0  0  0
    1.0417   -1.7292    0.0000 C   0  0  0  0  0  0  0  0  0  0  0  0
    7.5542   -5.4167    0.0000 C   0  0  0  0  0  0  0  0  0  0  0  0
    6.3042   -6.1292    0.0000 C   0  0  0  0  0  0  0  0  0  0  0  0
    2.4292   -1.2250    0.0000 C   0  0  0  0  0  0  0  0  0  0  0  0
    3.1375   -1.2250    0.0000 C   0  0  0  0  0  0  0  0  0  0  0  0
    5.5417   -2.8667    0.0000 C   0  0  0  0  0  0  0  0  0  0  0  0
    7.5542   -6.1292    0.0000 C   0  0  0  0  0  0  0  0  0  0  0  0
    6.9417   -6.4917    0.0000 C   0  0  0  0  0  0  0  0  0  0  0  0
    5.5417   -2.1917    0.0000 C   0  0  0  0  0  0  0  0  0  0  0  0
  2  1  2  0
  3  1  1  0
  4  2  1  0
  5  3  1  0
  6 17  1  0
  7  9  1  0
  8 22  1  0
  9  6  2  0
 10 15  1  0
 11 12  1  0
 12  8  1  0
 13  1  1  0
 14 16  1  0
 15  6  1  0
 16  8  2  0
 17 19  2  0
 18  2  1  0
 19 23  1  0
 20  3  1  0
 21 13  1  0
 22 21  1  0
 23 27  2  0
 24 11  2  0
 25 13  2  0
 26 32  2  0
 27 31  1  0
 28 20  1  0
 29 18  1  0
 30  5  1  0
 31 28  2  0
 32 28  1  0
 33 16  1  0
 34 17  1  0
 35 19  1  0
 36 18  1  0
 37 18  1  0
 38 30  1  0
 39 40  1  0
 40 35  2  0
 41 38  1  0
  4  5  2  0
 23 26  1  0
 11 14  1  0
 39 34  2  0
  7 10  2  0
M  END

> <chembl_id>
CHEMBL1200692

> <chembl_pref_name>
OLMESARTAN MEDOXOMIL

$$$$

     RDKit          2D

 39 39  0  0  1  0  0  0  0  0999 V2000
    8.9167   -1.0292    0.0000 C   0  0  0  0  0  0  0  0  0  0  0  0
    7.0542   -0.6667    0.0000 C   0  0  0  0  0  0  0  0  0  0  0  0
    9.5417   -0.6667    0.0000 C   0  0  0  0  0  0  0  0  0  0  0  0
    6.4375   -1.0292    0.0000 C   0  0  0  0  0  0  0  0  0  0  0  0
    5.8167   -0.6667    0.0000 C   0  0  0  0  0  0  0  0  0  0  0  0
    7.6792   -1.0292    0.0000 N   0  0  0  0  0  0  0  0  0  0  0  0
    3.3292   -0.6667    0.0000 C   0  0  0  0  0  0  0  0  0  0  0  0
    3.9542   -1.0292    0.0000 C   0  0  0  0  0  0  0  0  0  0  0  0
    0.8417   -0.6750    0.0000 C   0  0  0  0  0  0  0  0  0  0  0  0
    8.3000   -0.6667    0.0000 C   0  0  0  0  0  0  0  0  0  0  0  0
    5.1917   -1.0292    0.0000 C   0  0  0  0  0  0  0  0  0  0  0  0
    4.5750   -0.6667    0.0000 C   0  0  0  0  0  0  0  0  0  0  0  0
    2.7125   -1.0292    0.0000 C   0  0  0  0  0  0  0  0  0  0  0  0
    0.8375    0.0583    0.0000 C   0  0  0  0  0  0  0  0  0  0  0  0
    1.4667   -1.0292    0.0000 C   0  0  0  0  0  0  0  0  0  0  0  0
    2.0875   -0.6667    0.0000 C   0  0  0  0  0  0  0  0  0  0  0  0
    9.5417    0.0500    0.0000 O   0  0  0  0  0  0  0  0  0  0  0  0
    7.0542    0.0500    0.0000 O   0  0  0  0  0  0  0  0  0  0  0  0
    1.4625    0.4125    0.0000 C   0  0  0  0  0  0  0  0  0  0  0  0
   10.1667   -1.0292    0.0000 N   0  0  0  0  0  0  0  0  0  0  0  0
    6.4292   -1.7500    0.0000 C   0  0  0  0  0  0  0  0  0  0  0  0
    3.3292    0.0500    0.0000 C   0  0  0  0  0  0  0  0  0  0  0  0
    4.5667    0.0500    0.0000 N   0  0  0  0  0  0  0  0  0  0  0  0
    2.0875    0.0583    0.0000 C   0  0  0  0  0  0  0  0  0  0  0  0
    0.2167   -1.0292    0.0000 O   0  0  0  0  0  0  0  0  0  0  0  0
    5.1917   -1.7500    0.0000 O   0  0  0  0  0  0  0  0  0  0  0  0
    0.2125    0.4125    0.0000 O   0  0  0  0  0  0  0  0  0  0  0  0
    8.4542   -1.4250    0.0000 C   0  0  0  0  0  0  0  0  0  0  0  0
    9.4292   -1.4375    0.0000 C   0  0  0  0  0  0  0  0  0  0  0  0
   -1.0333   -1.0250    0.0000 C   0  0  0  0  0  0  0  0  0  0  0  0
   -2.2833   -1.0250    0.0000 O   0  0  0  0  0  0  0  0  0  0  0  0
   -0.4083   -0.6667    0.0000 C   0  0  0  0  0  0  0  0  0  0  0  0
   -1.6583   -0.6667    0.0000 C   0  0  0  0  0  0  0  0  0  0  0  0
    5.8625   -2.1292    0.0000 C   0  0  0  0  0  0  0  0  0  0  0  0
    6.9542   -2.1042    0.0000 C   0  0  0  0  0  0  0  0  0  0  0  0
    2.7125    0.6250    0.0000 C   0  0  0  0  0  0  0  0  0  0  0  0
    3.8375    0.5625    0.0000 C   0  0  0  0  0  0  0  0  0  0  0  0
    0.2042    1.1333    0.0000 C   0  0  0  0  0  0  0  0  0  0  0  0
   -2.8958   -0.6625    0.0000 C   0  0  0  0  0  0  0  0  0  0  0  0
  2  6  1  0
  3  1  1  0
  4  2  1  0
  5  4  1  0
  6 10  1  0
  7  8  1  0
  8 12  1  0
  9 15  2  0
 10  1  1  0
 11  5  1  0
 12 11  1  0
 13  7  1  0
 14 19  2  0
 15 16  1  0
 16 13  1  0
 17  3  2  0
 18  2  2  0
 19 24  1  0
 20  3  1  0
  4 21  1  6
  7 22  1  6
 12 23  1  6
 24 16  2  0
 25  9  1  0
 11 26  1  6
 27 14  1  0
 28  1  1  0
 29  1  1  0
 30 32  1  0
 31 33  1  0
 32 25  1  0
 33 30  1  0
 34 21  1  0
 35 21  1  0
 36 22  1  0
 37 22  1  0
 38 27  1  0
 39 31  1  0
 14  9  1  0
M  END


> <chembl_id>
CHEMBL1639

> <chembl_pref_name>
ALISKIREN

$$$$

     RDKit          2D

 33 35  0  0  1  0  0  0  0  0999 V2000
    2.2542   -2.3167    0.0000 N   0  0  0  0  0  0  0  0  0  0  0  0
    2.8875   -2.5792    0.0000 C   0  0  0  0  0  0  0  0  0  0  0  0
    2.2542   -1.4417    0.0000 C   0  0  0  0  0  0  0  0  0  0  0  0
    1.7875   -2.8292    0.0000 C   0  0  0  0  0  0  0  0  0  0  0  0
    2.8292   -3.3000    0.0000 C   0  0  0  0  0  0  0  0  0  0  0  0
    3.4750   -2.2292    0.0000 C   0  0  0  0  0  0  0  0  0  0  0  0
    1.0042   -1.4667    0.0000 N   0  0  0  0  0  0  0  0  0  0  0  0
    2.1333   -3.4542    0.0000 C   0  0  0  0  0  0  0  0  0  0  0  0
    1.6125   -1.1125    0.0000 C   0  0  0  0  0  0  0  0  0  0  0  0
    0.3792   -0.4292    0.0000 C   0  0  0  0  0  0  0  0  0  0  0  0
    0.3792   -1.1375    0.0000 C   0  0  0  0  0  0  0  0  0  0  0  0
    2.8542   -1.0792    0.0000 O   0  0  0  0  0  0  0  0  0  0  0  0
    3.4667   -1.5250    0.0000 O   0  0  0  0  0  0  0  0  0  0  0  0
    0.9625   -0.0667    0.0000 O   0  0  0  0  0  0  0  0  0  0  0  0
   -0.2208   -1.5042    0.0000 C   0  0  0  0  0  0  0  0  0  0  0  0
    4.0542   -2.5500    0.0000 O   0  0  0  0  0  0  0  0  0  0  0  0
   -0.2333   -0.1042    0.0000 O   0  0  0  0  0  0  0  0  0  0  0  0
   -0.8458   -1.1542    0.0000 C   0  0  0  0  0  0  0  0  0  0  0  0
   -1.4583   -1.5167    0.0000 C   0  0  0  0  0  0  0  0  0  0  0  0
    1.0750   -2.8417    0.0000 C   0  0  0  0  0  0  0  0  0  0  0  0
    1.8042   -4.0708    0.0000 C   0  0  0  0  0  0  0  0  0  0  0  0
    1.6125   -0.3792    0.0000 C   0  0  0  0  0  0  0  0  0  0  0  0
   -0.8458   -0.4667    0.0000 C   0  0  0  0  0  0  0  0  0  0  0  0
   -1.4583   -2.2375    0.0000 C   0  0  0  0  0  0  0  0  0  0  0  0
   -2.0708   -1.1542    0.0000 C   0  0  0  0  0  0  0  0  0  0  0  0
    0.7292   -3.4792    0.0000 C   0  0  0  0  0  0  0  0  0  0  0  0
    1.1125   -4.0667    0.0000 C   0  0  0  0  0  0  0  0  0  0  0  0
   -1.4500   -0.1167    0.0000 C   0  0  0  0  0  0  0  0  0  0  0  0
   -2.0708   -2.5917    0.0000 C   0  0  0  0  0  0  0  0  0  0  0  0
   -2.6833   -1.5167    0.0000 C   0  0  0  0  0  0  0  0  0  0  0  0
   -2.6833   -2.2375    0.0000 C   0  0  0  0  0  0  0  0  0  0  0  0
    1.4292   -2.2792    0.0000 H   0  0  0  0  0  0  0  0  0  0  0  0
    2.5167   -4.0292    0.0000 H   0  0  0  0  0  0  0  0  0  0  0  0
  2  1  1  0
  3  1  1  0
  4  1  1  0
  5  2  1  0
  2  6  1  6
  7  9  1  0
  8  4  1  0
  9  3  1  0
 11 10  1  1
 11  7  1  0
 12  3  2  0
 13  6  2  0
 14 10  2  0
 15 11  1  0
 16  6  1  0
 17 10  1  0
 18 15  1  0
 19 18  1  0
 20  4  1  0
 21  8  1  0
  9 22  1  1
 23 17  1  0
 24 19  2  0
 25 19  1  0
 26 20  1  0
 27 26  1  0
 28 23  1  0
 29 24  1  0
 30 25  2  0
 31 30  1  0
  4 32  1  1
  8 33  1  6
  5  8  1  0
 27 21  1  0
 31 29  2  0
M  END


> <chembl_id>
CHEMBL1519

> <chembl_pref_name>
TRANDOLAPRIL

$$$$

     RDKit          2D

 30 32  0  0  0  0  0  0  0  0999 V2000
   -0.0833    0.3333    0.0000 N   0  0  0  0  0  0  0  0  0  0  0  0
    0.7125    0.3458    0.0000 C   0  0  0  0  0  0  0  0  0  0  0  0
    0.3375   -0.8667    0.0000 N   0  0  0  0  0  0  0  0  0  0  0  0
    1.8667    1.0625    0.0000 C   0  0  0  0  0  0  0  0  0  0  0  0
    1.0917    1.0458    0.0000 C   0  0  0  0  0  0  0  0  0  0  0  0
   -0.3083   -0.4167    0.0000 C   0  0  0  0  0  0  0  0  0  0  0  0
    0.9625   -0.3875    0.0000 C   0  0  0  0  0  0  0  0  0  0  0  0
    2.2375    1.7583    0.0000 C   0  0  0  0  0  0  0  0  0  0  0  0
   -3.7083    0.1958    0.0000 C   0  0  0  0  0  0  0  0  0  0  0  0
    3.0625    0.4208    0.0000 C   0  0  0  0  0  0  0  0  0  0  0  0
    3.7042   -0.0292    0.0000 S   0  0  0  0  0  0  0  0  0  0  0  0
   -0.6208    0.9083    0.0000 C   0  0  0  0  0  0  0  0  0  0  0  0
    2.2792    0.3958    0.0000 C   0  0  0  0  0  0  0  0  0  0  0  0
   -2.9333    0.3708    0.0000 C   0  0  0  0  0  0  0  0  0  0  0  0
    4.3417    0.4583    0.0000 C   0  0  0  0  0  0  0  0  0  0  0  0
    3.0292    1.7750    0.0000 O   0  0  0  0  0  0  0  0  0  0  0  0
    3.2792    1.1708    0.0000 C   0  0  0  0  0  0  0  0  0  0  0  0
   -3.9333   -0.5625    0.0000 O   0  0  0  0  0  0  0  0  0  0  0  0
    4.0667    1.1875    0.0000 C   0  0  0  0  0  0  0  0  0  0  0  0
   -2.7083    1.1208    0.0000 C   0  0  0  0  0  0  0  0  0  0  0  0
   -2.3958   -0.2000    0.0000 C   0  0  0  0  0  0  0  0  0  0  0  0
   -1.4000    0.7333    0.0000 C   0  0  0  0  0  0  0  0  0  0  0  0
    1.8292    2.4208    0.0000 O   0  0  0  0  0  0  0  0  0  0  0  0
   -4.2458    0.7708    0.0000 O   0  0  0  0  0  0  0  0  0  0  0  0
   -1.9375    1.3083    0.0000 C   0  0  0  0  0  0  0  0  0  0  0  0
   -1.6250   -0.0167    0.0000 C   0  0  0  0  0  0  0  0  0  0  0  0
   -1.0625   -0.6875    0.0000 C   0  0  0  0  0  0  0  0  0  0  0  0
   -1.2083   -1.4625    0.0000 C   0  0  0  0  0  0  0  0  0  0  0  0
   -1.9458   -1.7292    0.0000 C   0  0  0  0  0  0  0  0  0  0  0  0
   -2.0833   -2.5042    0.0000 C   0  0  0  0  0  0  0  0  0  0  0  0
  2  1  1  0
  3  6  2  0
  4  5  2  0
  5  2  1  0
  6  1  1  0
  7  2  2  0
  8  4  1  0
  9 14  1  0
 10 13  1  0
 11 10  1  0
 12  1  1  0
 13  4  1  0
 14 21  1  0
 15 11  1  0
 16  8  2  0
 17 10  2  0
 18  9  2  0
 19 17  1  0
 20 25  1  0
 21 26  2  0
 22 12  1  0
 23  8  1  0
 24  9  1  0
 25 22  2  0
 26 22  1  0
 27  6  1  0
 28 27  1  0
 29 28  1  0
 30 29  1  0
  7  3  1  0
 20 14  2  0
 19 15  2  0
M  END


> <chembl_id>
CHEMBL813

> <chembl_pref_name>
EPROSARTAN

$$$$

     RDKit          2D

 29 30  0  0  1  0  0  0  0  0999 V2000
    4.2580   -2.7040    0.0000 O   0  0  0  0  0  0  0  0  0  0  0  0
    6.4181   -1.2354    0.0000 O   0  0  0  0  0  0  0  0  0  0  0  0
    7.7701   -3.2557    0.0000 O   0  0  0  0  0  0  0  0  0  0  0  0
    7.3272   -1.9037    0.0000 O   0  0  0  0  0  0  0  0  0  0  0  0
    2.8516    0.0000    0.0000 O   0  0  0  0  0  0  0  0  0  0  0  0
    4.2658    0.0000    0.0000 O   0  0  0  0  0  0  0  0  0  0  0  0
    5.7111   -2.4787    0.0000 N   0  0  0  0  0  0  0  0  0  0  0  0
    5.2915   -3.7530    0.0000 N   0  0  0  0  0  0  0  0  0  0  0  0
    4.2658   -1.6473    0.0000 N   0  0  0  0  0  0  0  0  0  0  0  0
    6.3793   -2.9604    0.0000 C   0  0  0  0  0  0  0  0  0  0  0  0
    5.0350   -2.9604    0.0000 C   0  0  0  0  0  0  0  0  0  0  0  0
    5.7111   -1.6473    0.0000 C   0  0  0  0  0  0  0  0  0  0  0  0
    6.1151   -3.7530    0.0000 C   0  0  0  0  0  0  0  0  0  0  0  0
    4.9962   -1.2354    0.0000 C   0  0  0  0  0  0  0  0  0  0  0  0
    7.1563   -2.7040    0.0000 C   0  0  0  0  0  0  0  0  0  0  0  0
    3.5665   -1.2354    0.0000 C   0  0  0  0  0  0  0  0  0  0  0  0
    4.8097   -4.4212    0.0000 C   0  0  0  0  0  0  0  0  0  0  0  0
    4.9962   -0.4273    0.0000 C   0  0  0  0  0  0  0  0  0  0  0  0
    3.5665   -0.4273    0.0000 C   0  0  0  0  0  0  0  0  0  0  0  0
    2.8516   -1.6473    0.0000 C   0  0  0  0  0  0  0  0  0  0  0  0
    2.1290   -1.2354    0.0000 C   0  0  0  0  0  0  0  0  0  0  0  0
    1.4219   -1.6473    0.0000 C   0  0  0  0  0  0  0  0  0  0  0  0
    0.7071   -1.2354    0.0000 C   0  0  0  0  0  0  0  0  0  0  0  0
    1.4219   -2.4787    0.0000 C   0  0  0  0  0  0  0  0  0  0  0  0
    2.1290   -0.4273    0.0000 C   0  0  0  0  0  0  0  0  0  0  0  0
    0.0000   -1.6473    0.0000 C   0  0  0  0  0  0  0  0  0  0  0  0
    0.7071   -2.8905    0.0000 C   0  0  0  0  0  0  0  0  0  0  0  0
    0.0000   -2.4787    0.0000 C   0  0  0  0  0  0  0  0  0  0  0  0
    1.4219    0.0000    0.0000 C   0  0  0  0  0  0  0  0  0  0  0  0
  1 11  2  0
  2 12  2  0
  3 15  2  0
  4 15  1  0
  5 19  1  0
  5 25  1  0
  6 19  2  0
  7 10  1  0
  7 11  1  0
  7 12  1  0
  8 11  1  0
  8 13  1  0
  8 17  1  0
  9 14  1  0
  9 16  1  0
 10 13  1  0
 10 15  1  6
 12 14  1  0
 14 18  1  1
 16 19  1  1
 16 20  1  0
 20 21  1  0
 21 22  1  0
 22 23  2  0
 22 24  1  0
 23 26  1  0
 24 27  2  0
 25 29  1  0
 26 28  2  0
 27 28  1  0
M  END

> <chembl_id>
CHEMBL317094

> <chembl_pref_name>
IMIDAPRIL

$$$$

     RDKit          2D

 31 30  0  0  0  0  0  0  0  0999 V2000
    4.5000   -1.9018    0.0000 O   0  0  0  0  0  0  0  0  0  0  0  0
   -0.3618   -1.7690    0.0000 O   0  0  0  0  0  0  0  0  0  0  0  0
   -2.3814   -3.1197    0.0000 O   0  0  0  0  0  0  0  0  0  0  0  0
   -1.0224   -2.6782    0.0000 O   0  0  0  0  0  0  0  0  0  0  0  0
    0.8757    1.8033    0.0000 O   0  0  0  0  0  0  0  0  0  0  0  0
   -0.3618    1.0888    0.0000 O   0  0  0  0  0  0  0  0  0  0  0  0
   -1.5993   -1.0546    0.0000 N   0  0  0  0  0  0  0  0  0  0  0  0
    0.4632   -0.3401    0.0000 N   0  0  0  0  0  0  0  0  0  0  0  0
   -3.2493    1.8033    0.0000 N   0  0  0  0  0  0  0  0  0  0  0  0
   -2.0843   -1.7220    0.0000 C   0  0  0  0  0  0  0  0  0  0  0  0
   -0.7743   -1.0546    0.0000 C   0  0  0  0  0  0  0  0  0  0  0  0
   -0.3618   -0.3401    0.0000 C   0  0  0  0  0  0  0  0  0  0  0  0
   -2.0843   -0.3871    0.0000 C   0  0  0  0  0  0  0  0  0  0  0  0
   -2.8689   -1.4671    0.0000 C   0  0  0  0  0  0  0  0  0  0  0  0
   -1.8293   -2.5066    0.0000 C   0  0  0  0  0  0  0  0  0  0  0  0
   -2.8689   -0.6421    0.0000 C   0  0  0  0  0  0  0  0  0  0  0  0
    0.8757    0.3744    0.0000 C   0  0  0  0  0  0  0  0  0  0  0  0
   -0.7743    0.3744    0.0000 C   0  0  0  0  0  0  0  0  0  0  0  0
    0.4632    1.0888    0.0000 C   0  0  0  0  0  0  0  0  0  0  0  0
    1.7007    0.3744    0.0000 C   0  0  0  0  0  0  0  0  0  0  0  0
   -1.5993    0.3744    0.0000 C   0  0  0  0  0  0  0  0  0  0  0  0
    2.1132    1.0888    0.0000 C   0  0  0  0  0  0  0  0  0  0  0  0
    2.9382    1.0888    0.0000 C   0  0  0  0  0  0  0  0  0  0  0  0
   -2.0118    1.0888    0.0000 C   0  0  0  0  0  0  0  0  0  0  0  0
    3.3507    1.8033    0.0000 C   0  0  0  0  0  0  0  0  0  0  0  0
    3.3507    0.3744    0.0000 C   0  0  0  0  0  0  0  0  0  0  0  0
    4.1757    1.8033    0.0000 C   0  0  0  0  0  0  0  0  0  0  0  0
    4.1757    0.3744    0.0000 C   0  0  0  0  0  0  0  0  0  0  0  0
    4.5882    1.0888    0.0000 C   0  0  0  0  0  0  0  0  0  0  0  0
   -2.8368    1.0888    0.0000 C   0  0  0  0  0  0  0  0  0  0  0  0
    6.8274    0.0000    0.0000 O   0  0  0  0  0  0  0  0  0  0  0  0
  2 11  2  0
  3 15  2  0
  4 15  1  0
  5 19  2  0
  6 19  1  0
  7 10  1  0
  7 11  1  0
  7 13  1  0
  8 12  1  0
 17  8  1  6
  9 30  1  0
 10 14  1  0
 10 15  1  6
 11 12  1  0
 12 18  1  6
 13 16  1  0
 14 16  1  0
 17 19  1  0
 17 20  1  0
 18 21  1  0
 20 22  1  0
 21 24  1  0
 22 23  1  0
 23 25  2  0
 23 26  1  0
 24 30  1  0
 25 27  1  0
 26 28  2  0
 27 29  2  0
 28 29  1  0
M  END


> <chembl_id>
CHEMBL419213

> <chembl_pref_name>
LISINOPRIL

$$$$

     RDKit          2D

 39 44  0  0  0  0  0  0  0  0999 V2000
   -0.8000   -5.8792    0.0000 C   0  0  0  0  0  0  0  0  0  0  0  0
    1.7167   -5.7417    0.0000 N   0  0  0  0  0  0  0  0  0  0  0  0
    1.7125   -4.5917    0.0000 N   0  0  0  0  0  0  0  0  0  0  0  0
   -1.4500   -5.5917    0.0000 N   0  0  0  0  0  0  0  0  0  0  0  0
   -0.8750   -6.5917    0.0000 N   0  0  0  0  0  0  0  0  0  0  0  0
    1.0417   -5.5250    0.0000 C   0  0  0  0  0  0  0  0  0  0  0  0
    2.1292   -5.1625    0.0000 C   0  0  0  0  0  0  0  0  0  0  0  0
    1.0375   -4.8167    0.0000 C   0  0  0  0  0  0  0  0  0  0  0  0
   -0.1875   -5.5292    0.0000 C   0  0  0  0  0  0  0  0  0  0  0  0
   -1.5708   -6.7375    0.0000 C   0  0  0  0  0  0  0  0  0  0  0  0
   -1.9250   -6.1167    0.0000 C   0  0  0  0  0  0  0  0  0  0  0  0
    0.4250   -5.8792    0.0000 C   0  0  0  0  0  0  0  0  0  0  0  0
    4.7542   -7.5375    0.0000 C   0  0  0  0  0  0  0  0  0  0  0  0
    0.4250   -4.4625    0.0000 C   0  0  0  0  0  0  0  0  0  0  0  0
    4.1417   -7.8875    0.0000 C   0  0  0  0  0  0  0  0  0  0  0  0
    4.7625   -6.8292    0.0000 C   0  0  0  0  0  0  0  0  0  0  0  0
   -0.1875   -4.8167    0.0000 C   0  0  0  0  0  0  0  0  0  0  0  0
    1.7125   -6.4500    0.0000 C   0  0  0  0  0  0  0  0  0  0  0  0
    3.5375   -7.5292    0.0000 C   0  0  0  0  0  0  0  0  0  0  0  0
    4.1500   -6.4667    0.0000 O   0  0  0  0  0  0  0  0  0  0  0  0
    2.9167   -7.8750    0.0000 C   0  0  0  0  0  0  0  0  0  0  0  0
    3.5417   -6.8167    0.0000 C   0  0  0  0  0  0  0  0  0  0  0  0
    2.3167   -6.8042    0.0000 C   0  0  0  0  0  0  0  0  0  0  0  0
   -0.5333   -7.2042    0.0000 C   0  0  0  0  0  0  0  0  0  0  0  0
    5.3750   -6.4792    0.0000 O   0  0  0  0  0  0  0  0  0  0  0  0
    2.8292   -5.1500    0.0000 C   0  0  0  0  0  0  0  0  0  0  0  0
    2.9292   -6.4542    0.0000 C   0  0  0  0  0  0  0  0  0  0  0  0
    2.3042   -7.5167    0.0000 C   0  0  0  0  0  0  0  0  0  0  0  0
   -1.9250   -7.3417    0.0000 C   0  0  0  0  0  0  0  0  0  0  0  0
   -2.6333   -6.1250    0.0000 C   0  0  0  0  0  0  0  0  0  0  0  0
    5.3667   -7.8917    0.0000 C   0  0  0  0  0  0  0  0  0  0  0  0
    4.1292   -8.5917    0.0000 C   0  0  0  0  0  0  0  0  0  0  0  0
    0.4250   -3.7542    0.0000 C   0  0  0  0  0  0  0  0  0  0  0  0
    3.2042   -5.7542    0.0000 C   0  0  0  0  0  0  0  0  0  0  0  0
   -2.6333   -7.3417    0.0000 C   0  0  0  0  0  0  0  0  0  0  0  0
    5.3625   -8.6042    0.0000 C   0  0  0  0  0  0  0  0  0  0  0  0
    4.7417   -8.9542    0.0000 C   0  0  0  0  0  0  0  0  0  0  0  0
   -2.9833   -6.7375    0.0000 C   0  0  0  0  0  0  0  0  0  0  0  0
    3.9125   -5.7417    0.0000 C   0  0  0  0  0  0  0  0  0  0  0  0
  2  6  1  0
  3  8  1  0
  4  1  2  0
  5  1  1  0
  6 12  2  0
  7  2  1  0
  8 14  2  0
  9  1  1  0
 10  5  1  0
 11  4  1  0
 12  9  1  0
 13 15  1  0
 14 17  1  0
 15 19  1  0
 16 13  1  0
 17  9  2  0
 18  2  1  0
 19 21  2  0
 20 16  2  0
 21 28  1  0
 22 27  2  0
 23 18  1  0
 24  5  1  0
 25 16  1  0
 26  7  1  0
 27 23  1  0
 28 23  2  0
 29 10  1  0
 30 11  1  0
 31 13  2  0
 32 15  2  0
 33 14  1  0
 34 26  1  0
 35 29  2  0
 36 37  2  0
 37 32  1  0
 38 30  2  0
 39 34  1  0
 10 11  2  0
  8  6  1  0
 35 38  1  0
  3  7  2  0
 19 22  1  0
 36 31  1  0
M  END


> <chembl_id>
CHEMBL1017

> <chembl_pref_name>
TELMISARTAN

$$$$

     RDKit          2D

 32 36  0  0  0  0  0  0  0  0999 V2000
    4.6750   -3.0667    0.0000 N   0  0  0  0  0  0  0  0  0  0  0  0
    3.9917   -3.2792    0.0000 C   0  0  0  0  0  0  0  0  0  0  0  0
    4.0167   -2.1292    0.0000 N   0  0  0  0  0  0  0  0  0  0  0  0
    4.6875   -2.3542    0.0000 C   0  0  0  0  0  0  0  0  0  0  0  0
    3.5875   -2.7000    0.0000 C   0  0  0  0  0  0  0  0  0  0  0  0
    6.5125   -6.2667    0.0000 C   0  0  0  0  0  0  0  0  0  0  0  0
    7.4375   -5.5792    0.0000 N   0  0  0  0  0  0  0  0  0  0  0  0
    6.7250   -5.5875    0.0000 N   0  0  0  0  0  0  0  0  0  0  0  0
    7.6667   -6.2542    0.0000 N   0  0  0  0  0  0  0  0  0  0  0  0
    7.0917   -6.6792    0.0000 N   0  0  0  0  0  0  0  0  0  0  0  0
    5.8917   -6.6292    0.0000 C   0  0  0  0  0  0  0  0  0  0  0  0
    5.2792   -6.2750    0.0000 C   0  0  0  0  0  0  0  0  0  0  0  0
    5.2917   -3.4292    0.0000 C   0  0  0  0  0  0  0  0  0  0  0  0
    5.2792   -5.5625    0.0000 C   0  0  0  0  0  0  0  0  0  0  0  0
    3.7667   -3.9542    0.0000 O   0  0  0  0  0  0  0  0  0  0  0  0
    5.9000   -5.2042    0.0000 C   0  0  0  0  0  0  0  0  0  0  0  0
    4.6625   -5.2042    0.0000 C   0  0  0  0  0  0  0  0  0  0  0  0
    5.2875   -4.1417    0.0000 C   0  0  0  0  0  0  0  0  0  0  0  0
    5.3042   -2.0000    0.0000 C   0  0  0  0  0  0  0  0  0  0  0  0
    5.9000   -4.4917    0.0000 C   0  0  0  0  0  0  0  0  0  0  0  0
    4.6667   -4.4875    0.0000 C   0  0  0  0  0  0  0  0  0  0  0  0
    3.1750   -3.2792    0.0000 C   0  0  0  0  0  0  0  0  0  0  0  0
    3.1542   -2.1292    0.0000 C   0  0  0  0  0  0  0  0  0  0  0  0
    5.8917   -7.3417    0.0000 C   0  0  0  0  0  0  0  0  0  0  0  0
    4.6625   -6.6292    0.0000 C   0  0  0  0  0  0  0  0  0  0  0  0
    5.9167   -2.3500    0.0000 C   0  0  0  0  0  0  0  0  0  0  0  0
    6.5375   -1.9917    0.0000 C   0  0  0  0  0  0  0  0  0  0  0  0
    2.4917   -3.0667    0.0000 C   0  0  0  0  0  0  0  0  0  0  0  0
    2.4792   -2.3542    0.0000 C   0  0  0  0  0  0  0  0  0  0  0  0
    5.2792   -7.6917    0.0000 C   0  0  0  0  0  0  0  0  0  0  0  0
    4.6542   -7.3417    0.0000 C   0  0  0  0  0  0  0  0  0  0  0  0
    7.1542   -2.3417    0.0000 C   0  0  0  0  0  0  0  0  0  0  0  0
  2  1  1  0
  3  4  2  0
  4  1  1  0
  5  2  1  0
  6 11  1  0
  7  8  1  0
  8  6  2  0
  9 10  1  0
 10  6  1  0
 11 12  1  0
 12 14  1  0
 13  1  1  0
 14 17  2  0
 15  2  2  0
 16 20  2  0
 17 21  1  0
 18 13  1  0
 19  4  1  0
 20 18  1  0
 21 18  2  0
 22  5  1  0
 23  5  1  0
 24 11  2  0
 25 12  2  0
 26 19  1  0
 27 26  1  0
 28 22  1  0
 29 23  1  0
 30 31  2  0
 31 25  1  0
 32 27  1  0
  3  5  1  0
 14 16  1  0
 28 29  1  0
 30 24  1  0
  7  9  2  0
M  END


> <chembl_id>
CHEMBL1513

> <chembl_pref_name>
IRBESARTAN

$$$$

     RDKit          2D

 32 34  0  0  1  0  0  0  0  0999 V2000
    3.6875   -5.9667    0.0000 N   0  0  0  0  0  0  0  0  0  0  0  0
    6.7917   -7.3500    0.0000 C   0  0  0  0  0  0  0  0  0  0  0  0
    6.4250   -6.2667    0.0000 N   0  0  0  0  0  0  0  0  0  0  0  0
    6.1917   -6.9417    0.0000 N   0  0  0  0  0  0  0  0  0  0  0  0
    7.1042   -6.2667    0.0000 N   0  0  0  0  0  0  0  0  0  0  0  0
    7.3250   -6.9292    0.0000 N   0  0  0  0  0  0  0  0  0  0  0  0
    6.7917   -8.0000    0.0000 C   0  0  0  0  0  0  0  0  0  0  0  0
    3.0917   -5.6125    0.0000 C   0  0  0  0  0  0  0  0  0  0  0  0
    4.2875   -5.6125    0.0000 C   0  0  0  0  0  0  0  0  0  0  0  0
    6.1750   -8.3667    0.0000 C   0  0  0  0  0  0  0  0  0  0  0  0
    2.4875   -5.9667    0.0000 C   0  0  0  0  0  0  0  0  0  0  0  0
    3.6875   -6.9375    0.0000 C   0  0  0  0  0  0  0  0  0  0  0  0
    5.5417   -8.0167    0.0000 C   0  0  0  0  0  0  0  0  0  0  0  0
    4.2875   -4.9667    0.0000 O   0  0  0  0  0  0  0  0  0  0  0  0
    2.4875   -6.6542    0.0000 O   0  0  0  0  0  0  0  0  0  0  0  0
    5.5417   -7.3042    0.0000 C   0  0  0  0  0  0  0  0  0  0  0  0
    4.9125   -8.3792    0.0000 C   0  0  0  0  0  0  0  0  0  0  0  0
    4.3000   -7.3042    0.0000 C   0  0  0  0  0  0  0  0  0  0  0  0
    3.0917   -4.9000    0.0000 C   0  0  0  0  0  0  0  0  0  0  0  0
    1.9000   -5.5917    0.0000 O   0  0  0  0  0  0  0  0  0  0  0  0
    4.3000   -8.0167    0.0000 C   0  0  0  0  0  0  0  0  0  0  0  0
    4.9125   -6.9292    0.0000 C   0  0  0  0  0  0  0  0  0  0  0  0
    7.3917   -8.3542    0.0000 C   0  0  0  0  0  0  0  0  0  0  0  0
    4.8917   -5.9667    0.0000 C   0  0  0  0  0  0  0  0  0  0  0  0
    6.1750   -9.0625    0.0000 C   0  0  0  0  0  0  0  0  0  0  0  0
    2.4875   -4.5542    0.0000 C   0  0  0  0  0  0  0  0  0  0  0  0
    3.6875   -4.5375    0.0000 C   0  0  0  0  0  0  0  0  0  0  0  0
    5.4917   -5.5917    0.0000 C   0  0  0  0  0  0  0  0  0  0  0  0
    6.0792   -5.9667    0.0000 C   0  0  0  0  0  0  0  0  0  0  0  0
    7.3917   -9.0625    0.0000 C   0  0  0  0  0  0  0  0  0  0  0  0
    6.7917   -9.4250    0.0000 C   0  0  0  0  0  0  0  0  0  0  0  0
    6.6667   -5.6250    0.0000 C   0  0  0  0  0  0  0  0  0  0  0  0
  2  7  1  0
  3  4  1  0
  4  2  2  0
  5  6  1  0
  6  2  1  0
  7 10  2  0
  8  1  1  0
  9  1  1  0
 10 13  1  0
 11  8  1  0
 12  1  1  0
 13 16  2  0
 14  9  2  0
 15 11  2  0
 16 22  1  0
 17 21  2  0
 18 12  1  0
  8 19  1  6
 20 11  1  0
 21 18  1  0
 22 18  2  0
 23  7  1  0
 24  9  1  0
 25 10  1  0
 26 19  1  0
 27 19  1  0
 28 24  1  0
 29 28  1  0
 30 31  1  0
 31 25  2  0
 32 29  1  0
 17 13  1  0
 30 23  2  0
  3  5  2  0
M  END


> <chembl_id>
CHEMBL1069

> <chembl_pref_name>
VALSARTAN

$$$$

     RDKit          2D

 36 38  0  0  1  0  0  0  0  0999 V2000
    5.5125   -4.9292    0.0000 N   0  0  0  0  0  0  0  0  0  0  0  0
    5.5125   -4.2417    0.0000 C   0  0  0  0  0  0  0  0  0  0  0  0
    6.1042   -5.3042    0.0000 C   0  0  0  0  0  0  0  0  0  0  0  0
    4.9042   -5.2917    0.0000 C   0  0  0  0  0  0  0  0  0  0  0  0
    4.9042   -6.0250    0.0000 C   0  0  0  0  0  0  0  0  0  0  0  0
    5.5125   -6.3750    0.0000 C   0  0  0  0  0  0  0  0  0  0  0  0
    6.1042   -6.0250    0.0000 C   0  0  0  0  0  0  0  0  0  0  0  0
    4.1542   -4.2417    0.0000 N   0  0  0  0  0  0  0  0  0  0  0  0
    6.7167   -4.9500    0.0000 C   0  0  0  0  0  0  0  0  0  0  0  0
    4.8250   -3.8667    0.0000 C   0  0  0  0  0  0  0  0  0  0  0  0
    3.5292   -3.1792    0.0000 C   0  0  0  0  0  0  0  0  0  0  0  0
    5.5125   -7.0667    0.0000 C   0  0  0  0  0  0  0  0  0  0  0  0
    4.3042   -6.3750    0.0000 C   0  0  0  0  0  0  0  0  0  0  0  0
    4.9042   -7.4167    0.0000 C   0  0  0  0  0  0  0  0  0  0  0  0
    4.3042   -7.0667    0.0000 C   0  0  0  0  0  0  0  0  0  0  0  0
    3.5292   -3.8917    0.0000 C   0  0  0  0  0  0  0  0  0  0  0  0
    6.0917   -3.8917    0.0000 O   0  0  0  0  0  0  0  0  0  0  0  0
    6.7167   -4.2417    0.0000 O   0  0  0  0  0  0  0  0  0  0  0  0
    4.1500   -2.8125    0.0000 O   0  0  0  0  0  0  0  0  0  0  0  0
    2.9125   -4.2417    0.0000 C   0  0  0  0  0  0  0  0  0  0  0  0
    7.3292   -5.2917    0.0000 O   0  0  0  0  0  0  0  0  0  0  0  0
    2.9375   -2.8125    0.0000 O   0  0  0  0  0  0  0  0  0  0  0  0
    2.2667   -3.8917    0.0000 C   0  0  0  0  0  0  0  0  0  0  0  0
    4.9042   -8.1167    0.0000 O   0  0  0  0  0  0  0  0  0  0  0  0
    3.6917   -7.4042    0.0000 O   0  0  0  0  0  0  0  0  0  0  0  0
    1.6417   -4.2125    0.0000 C   0  0  0  0  0  0  0  0  0  0  0  0
    4.8250   -3.2042    0.0000 C   0  0  0  0  0  0  0  0  0  0  0  0
    2.3042   -3.1792    0.0000 C   0  0  0  0  0  0  0  0  0  0  0  0
    3.1042   -7.0542    0.0000 C   0  0  0  0  0  0  0  0  0  0  0  0
    5.5125   -8.4625    0.0000 C   0  0  0  0  0  0  0  0  0  0  0  0
    1.0167   -3.8375    0.0000 C   0  0  0  0  0  0  0  0  0  0  0  0
    1.6417   -4.9500    0.0000 C   0  0  0  0  0  0  0  0  0  0  0  0
    1.7042   -2.8125    0.0000 C   0  0  0  0  0  0  0  0  0  0  0  0
    0.3792   -4.2125    0.0000 C   0  0  0  0  0  0  0  0  0  0  0  0
    1.0167   -5.3042    0.0000 C   0  0  0  0  0  0  0  0  0  0  0  0
    0.3792   -4.9500    0.0000 C   0  0  0  0  0  0  0  0  0  0  0  0
  2  1  1  0
  3  1  1  0
  4  1  1  0
  5  4  1  0
  6  5  1  0
  7  3  1  0
  8 10  1  0
  3  9  1  6
 10  2  1  0
 16 11  1  1
 12  6  2  0
 13  5  2  0
 14 15  2  0
 15 13  1  0
 16  8  1  0
 17  2  2  0
 18  9  2  0
 19 11  2  0
 20 16  1  0
 21  9  1  0
 22 11  1  0
 23 20  1  0
 24 14  1  0
 25 15  1  0
 26 23  1  0
 10 27  1  1
 28 22  1  0
 29 25  1  0
 30 24  1  0
 31 26  2  0
 32 26  1  0
 33 28  1  0
 34 31  1  0
 35 32  2  0
 36 34  2  0
  6  7  1  0
 12 14  1  0
 36 35  1  0
M  END

> <chembl_id>
CHEMBL1165

> <chembl_pref_name>
MOEXIPRIL

$$$$

     RDKit          2D

 28 29  0  0  1  0  0  0  0  0999 V2000
    0.7875    1.5375    0.0000 N   0  0  0  0  0  0  0  0  0  0  0  0
    1.2875    2.2333    0.0000 C   0  0  0  0  0  0  0  0  0  0  0  0
    1.0500    0.7208    0.0000 C   0  0  0  0  0  0  0  0  0  0  0  0
   -0.0208    1.8000    0.0000 C   0  0  0  0  0  0  0  0  0  0  0  0
    0.7875    2.9125    0.0000 C   0  0  0  0  0  0  0  0  0  0  0  0
    2.1292    2.2333    0.0000 C   0  0  0  0  0  0  0  0  0  0  0  0
    0.7500   -0.7167    0.0000 N   0  0  0  0  0  0  0  0  0  0  0  0
   -0.0208    2.6500    0.0000 C   0  0  0  0  0  0  0  0  0  0  0  0
    0.4875    0.0958    0.0000 C   0  0  0  0  0  0  0  0  0  0  0  0
   -0.6583   -1.1542    0.0000 C   0  0  0  0  0  0  0  0  0  0  0  0
    0.1792   -1.3375    0.0000 C   0  0  0  0  0  0  0  0  0  0  0  0
    1.8792    0.5500    0.0000 O   0  0  0  0  0  0  0  0  0  0  0  0
    2.5625    1.5000    0.0000 O   0  0  0  0  0  0  0  0  0  0  0  0
   -0.8625   -0.5375    0.0000 O   0  0  0  0  0  0  0  0  0  0  0  0
    2.5625    2.9708    0.0000 O   0  0  0  0  0  0  0  0  0  0  0  0
   -1.2250   -1.7917    0.0000 O   0  0  0  0  0  0  0  0  0  0  0  0
   -0.7583    1.3750    0.0000 C   0  0  0  0  0  0  0  0  0  0  0  0
   -0.7583    3.0833    0.0000 C   0  0  0  0  0  0  0  0  0  0  0  0
   -0.3458    0.2708    0.0000 C   0  0  0  0  0  0  0  0  0  0  0  0
    0.4375   -2.1500    0.0000 C   0  0  0  0  0  0  0  0  0  0  0  0
   -2.0625   -1.6250    0.0000 C   0  0  0  0  0  0  0  0  0  0  0  0
   -0.1333   -2.7792    0.0000 C   0  0  0  0  0  0  0  0  0  0  0  0
   -1.4958    1.8000    0.0000 C   0  0  0  0  0  0  0  0  0  0  0  0
   -1.4958    2.6500    0.0000 C   0  0  0  0  0  0  0  0  0  0  0  0
   -2.6333   -2.2542    0.0000 C   0  0  0  0  0  0  0  0  0  0  0  0
    0.1250   -3.5917    0.0000 C   0  0  0  0  0  0  0  0  0  0  0  0
   -0.0083    0.9625    0.0000 H   0  0  0  0  0  0  0  0  0  0  0  0
   -0.0208    3.4958    0.0000 H   0  0  0  0  0  0  0  0  0  0  0  0
  2  1  1  0
  3  1  1  0
  4  1  1  0
  5  2  1  0
  2  6  1  1
  7  9  1  0
  8  4  1  0
  9  3  1  0
 11 10  1  1
 11  7  1  0
 12  3  2  0
 13  6  2  0
 14 10  2  0
 15  6  1  0
 16 10  1  0
 17  4  1  0
 18  8  1  0
  9 19  1  1
 20 11  1  0
 21 16  1  0
 22 20  1  0
 23 17  1  0
 24 23  1  0
 25 21  1  0
 26 22  1  0
  4 27  1  6
  8 28  1  6
  8  5  1  0
 18 24  1  0
M  END

> <chembl_id>
CHEMBL1581

> <chembl_pref_name>
PERINDOPRIL

$$$$

     RDKit          2D

 32 34  0  0  0  0  0  0  0  0999 V2000
   15.4366   -1.8191    0.0000 C   0  0  0  0  0  0  0  0  0  0  0  0
   15.4417   -0.9941    0.0000 N   0  0  0  0  0  0  0  0  0  0  0  0
   16.1559   -0.5859    0.0000 C   0  0  0  0  0  0  0  0  0  0  0  0
   16.8692   -1.0028    0.0000 C   0  0  0  0  0  0  0  0  0  0  0  0
   16.8642   -1.8278    0.0000 C   0  0  0  0  0  0  0  0  0  0  0  0
   17.5775   -2.2404    0.0000 C   0  0  0  0  0  0  0  0  0  0  0  0
   17.5767   -3.0654    0.0000 C   0  0  0  0  0  0  0  0  0  0  0  0
   16.8583   -3.4777    0.0000 C   0  0  0  0  0  0  0  0  0  0  0  0
   16.1450   -3.0609    0.0000 C   0  0  0  0  0  0  0  0  0  0  0  0
   16.1500   -2.2359    0.0000 C   0  0  0  0  0  0  0  0  0  0  0  0
   16.1609    0.2391    0.0000 C   0  0  0  0  0  0  0  0  0  0  0  0
   16.8751    0.6472    0.0000 O   0  0  0  0  0  0  0  0  0  0  0  0
   15.4475    0.6559    0.0000 O   0  0  0  0  0  0  0  0  0  0  0  0
   14.7283   -0.5814    0.0000 C   0  0  0  0  0  0  0  0  0  0  0  0
   14.0099   -0.9895    0.0000 C   0  0  0  0  0  0  0  0  0  0  0  0
   13.2966   -0.5727    0.0000 C   0  0  0  0  0  0  0  0  0  0  0  0
   14.7292    0.2436    0.0000 O   0  0  0  0  0  0  0  0  0  0  0  0
   14.0091   -1.8145    0.0000 N   0  0  0  0  0  0  0  0  0  0  0  0
   12.5774   -1.8100    0.0000 C   0  0  0  0  0  0  0  0  0  0  0  0
   13.2907   -2.2227    0.0000 C   0  0  0  0  0  0  0  0  0  0  0  0
   13.2899   -3.0477    0.0000 C   0  0  0  0  0  0  0  0  0  0  0  0
   12.5715   -3.4600    0.0000 C   0  0  0  0  0  0  0  0  0  0  0  0
   12.5706   -4.2850    0.0000 C   0  0  0  0  0  0  0  0  0  0  0  0
   13.2798   -4.6976    0.0000 C   0  0  0  0  0  0  0  0  0  0  0  0
   13.2790   -5.5226    0.0000 C   0  0  0  0  0  0  0  0  0  0  0  0
   12.5606   -5.9349    0.0000 C   0  0  0  0  0  0  0  0  0  0  0  0
   11.8514   -5.5181    0.0000 C   0  0  0  0  0  0  0  0  0  0  0  0
   11.8523   -4.6931    0.0000 C   0  0  0  0  0  0  0  0  0  0  0  0
   12.5824   -0.9850    0.0000 O   0  0  0  0  0  0  0  0  0  0  0  0
   11.8632   -2.2181    0.0000 O   0  0  0  0  0  0  0  0  0  0  0  0
   11.1498   -1.8013    0.0000 C   0  0  0  0  0  0  0  0  0  0  0  0
   10.4356   -2.2136    0.0000 C   0  0  0  0  0  0  0  0  0  0  0  0
  1  2  1  0
  2  3  1  0
  3  4  1  0
  4  5  1  0
  5  6  1  0
  6  7  2  0
  7  8  1  0
  8  9  2  0
  9 10  1  0
  1 10  1  0
  5 10  2  0
 11 12  2  0
 11 13  1  0
  3 11  1  6
 14 15  1  0
 15 16  1  1
 14 17  2  0
 19 20  1  0
 20 21  1  0
 21 22  1  0
 23 24  1  0
 24 25  2  0
 25 26  1  0
 26 27  2  0
 27 28  1  0
 23 28  2  0
 22 23  1  0
 19 29  2  0
 31 32  1  0
 30 31  1  0
 19 30  1  0
 20 18  1  1
 15 18  1  0
  2 14  1  0
M  END

> <chembl_id>
CHEMBL1592

> <chembl_pref_name>
QUINAPRIL

$$$$

     RDKit          2D

 31 33  0  0  1  0  0  0  0  0999 V2000
    2.5208   -7.0125    0.0000 N   0  0  0  0  0  0  0  0  0  0  0  0
    1.9042   -7.3625    0.0000 C   0  0  0  0  0  0  0  0  0  0  0  0
    3.0958   -7.4292    0.0000 C   0  0  0  0  0  0  0  0  0  0  0  0
    3.4500   -6.3375    0.0000 C   0  0  0  0  0  0  0  0  0  0  0  0
    3.6667   -7.0125    0.0000 C   0  0  0  0  0  0  0  0  0  0  0  0
    2.7375   -6.3417    0.0000 C   0  0  0  0  0  0  0  0  0  0  0  0
    0.6750   -7.3458    0.0000 N   0  0  0  0  0  0  0  0  0  0  0  0
    3.0917   -8.1375    0.0000 C   0  0  0  0  0  0  0  0  0  0  0  0
    1.2917   -7.0000    0.0000 C   0  0  0  0  0  0  0  0  0  0  0  0
    0.0750   -6.2750    0.0000 C   0  0  0  0  0  0  0  0  0  0  0  0
    0.0667   -6.9833    0.0000 C   0  0  0  0  0  0  0  0  0  0  0  0
    4.1583   -6.3375    0.0000 S   0  0  0  0  0  0  0  0  0  0  0  0
    3.2333   -5.6625    0.0000 S   0  0  0  0  0  0  0  0  0  0  0  0
    1.8917   -8.0667    0.0000 O   0  0  0  0  0  0  0  0  0  0  0  0
    2.4750   -8.4875    0.0000 O   0  0  0  0  0  0  0  0  0  0  0  0
    0.6958   -5.9292    0.0000 O   0  0  0  0  0  0  0  0  0  0  0  0
   -0.5500   -7.3292    0.0000 C   0  0  0  0  0  0  0  0  0  0  0  0
    3.7000   -8.4917    0.0000 O   0  0  0  0  0  0  0  0  0  0  0  0
   -0.5333   -5.9125    0.0000 O   0  0  0  0  0  0  0  0  0  0  0  0
   -1.1583   -6.9667    0.0000 C   0  0  0  0  0  0  0  0  0  0  0  0
   -1.7792   -7.3125    0.0000 C   0  0  0  0  0  0  0  0  0  0  0  0
    3.8042   -5.2458    0.0000 C   0  0  0  0  0  0  0  0  0  0  0  0
    4.3792   -5.6625    0.0000 C   0  0  0  0  0  0  0  0  0  0  0  0
    1.3042   -6.2917    0.0000 C   0  0  0  0  0  0  0  0  0  0  0  0
   -1.1500   -6.2583    0.0000 C   0  0  0  0  0  0  0  0  0  0  0  0
   -2.3875   -6.9500    0.0000 C   0  0  0  0  0  0  0  0  0  0  0  0
   -1.7833   -8.0167    0.0000 C   0  0  0  0  0  0  0  0  0  0  0  0
   -1.7583   -5.8958    0.0000 C   0  0  0  0  0  0  0  0  0  0  0  0
   -2.4000   -8.3667    0.0000 C   0  0  0  0  0  0  0  0  0  0  0  0
   -3.0042   -7.2958    0.0000 C   0  0  0  0  0  0  0  0  0  0  0  0
   -3.0125   -8.0042    0.0000 C   0  0  0  0  0  0  0  0  0  0  0  0
  2  1  1  0
  3  1  1  0
  4  6  1  0
  5  3  1  0
  6  1  1  0
  7  9  1  0
  3  8  1  1
  9  2  1  0
 11 10  1  1
 11  7  1  0
 12  4  1  0
 13  4  1  0
 14  2  2  0
 15  8  2  0
 16 10  2  0
 17 11  1  0
 18  8  1  0
 19 10  1  0
 20 17  1  0
 21 20  1  0
 22 13  1  0
 23 12  1  0
  9 24  1  1
 25 19  1  0
 26 21  2  0
 27 21  1  0
 28 25  1  0
 29 27  2  0
 30 26  1  0
 31 29  1  0
  4  5  1  0
 22 23  1  0
 31 30  2  0
M  END

> <chembl_id>
CHEMBL431

> <chembl_pref_name>
SPIRAPRIL

$$$$

     RDKit          2D

 27 28  0  0  1  0  0  0  0  0999 V2000
    2.3375   -6.8917    0.0000 N   0  0  0  0  0  0  0  0  0  0  0  0
    1.7250   -6.5417    0.0000 C   0  0  0  0  0  0  0  0  0  0  0  0
    2.5500   -7.5667    0.0000 C   0  0  0  0  0  0  0  0  0  0  0  0
    0.5000   -6.5417    0.0000 N   0  0  0  0  0  0  0  0  0  0  0  0
    1.1167   -6.8917    0.0000 C   0  0  0  0  0  0  0  0  0  0  0  0
    2.1958   -8.1875    0.0000 C   0  0  0  0  0  0  0  0  0  0  0  0
   -0.1208   -7.6042    0.0000 C   0  0  0  0  0  0  0  0  0  0  0  0
   -0.1125   -6.8917    0.0000 C   0  0  0  0  0  0  0  0  0  0  0  0
    1.7250   -5.8292    0.0000 O   0  0  0  0  0  0  0  0  0  0  0  0
    2.5542   -8.7917    0.0000 O   0  0  0  0  0  0  0  0  0  0  0  0
    0.4917   -7.9625    0.0000 O   0  0  0  0  0  0  0  0  0  0  0  0
   -0.7250   -6.5417    0.0000 C   0  0  0  0  0  0  0  0  0  0  0  0
    2.9125   -6.4792    0.0000 C   0  0  0  0  0  0  0  0  0  0  0  0
    1.4917   -8.1917    0.0000 O   0  0  0  0  0  0  0  0  0  0  0  0
   -0.7333   -7.9500    0.0000 O   0  0  0  0  0  0  0  0  0  0  0  0
   -1.3375   -6.8917    0.0000 C   0  0  0  0  0  0  0  0  0  0  0  0
    3.2542   -7.5750    0.0000 C   0  0  0  0  0  0  0  0  0  0  0  0
   -1.9583   -6.5417    0.0000 C   0  0  0  0  0  0  0  0  0  0  0  0
    3.4792   -6.9042    0.0000 C   0  0  0  0  0  0  0  0  0  0  0  0
    1.1167   -7.6042    0.0000 C   0  0  0  0  0  0  0  0  0  0  0  0
   -1.3458   -7.5917    0.0000 C   0  0  0  0  0  0  0  0  0  0  0  0
   -2.5625   -6.8917    0.0000 C   0  0  0  0  0  0  0  0  0  0  0  0
   -1.9500   -5.8292    0.0000 C   0  0  0  0  0  0  0  0  0  0  0  0
   -1.9667   -7.9375    0.0000 C   0  0  0  0  0  0  0  0  0  0  0  0
   -2.5625   -5.4792    0.0000 C   0  0  0  0  0  0  0  0  0  0  0  0
   -3.1750   -6.5417    0.0000 C   0  0  0  0  0  0  0  0  0  0  0  0
   -3.1833   -5.8292    0.0000 C   0  0  0  0  0  0  0  0  0  0  0  0
  2  1  1  0
  3  1  1  0
  5  4  1  0
  5  2  1  0
  3  6  1  1
  8  7  1  0
  8  4  1  6
  9  2  2  0
 10  6  2  0
 11  7  2  0
 12  8  1  0
 13  1  1  0
 14  6  1  0
 15  7  1  0
 16 12  1  0
 17  3  1  0
 18 16  1  0
 19 13  1  0
  5 20  1  6
 21 15  1  0
 22 18  1  0
 23 18  2  0
 24 21  1  0
 25 23  1  0
 26 22  2  0
 27 25  2  0
 19 17  1  0
 27 26  1  0
M  END

> <chembl_id>
CHEMBL578

> <chembl_pref_name>
ENALAPRIL

$$$$

     RDKit          2D

 32 34  0  0  1  0  0  0  0  0999 V2000
    3.6292   -9.8125    0.0000 N   0  0  0  0  0  0  0  0  0  0  0  0
    4.0375  -10.3917    0.0000 C   0  0  0  0  0  0  0  0  0  0  0  0
    3.6250   -9.1042    0.0000 C   0  0  0  0  0  0  0  0  0  0  0  0
    2.9417  -10.0250    0.0000 C   0  0  0  0  0  0  0  0  0  0  0  0
    3.6125  -10.9542    0.0000 C   0  0  0  0  0  0  0  0  0  0  0  0
    4.7417  -10.4042    0.0000 C   0  0  0  0  0  0  0  0  0  0  0  0
    2.3917   -9.1125    0.0000 N   0  0  0  0  0  0  0  0  0  0  0  0
    2.9417  -10.7292    0.0000 C   0  0  0  0  0  0  0  0  0  0  0  0
    3.0042   -8.7542    0.0000 C   0  0  0  0  0  0  0  0  0  0  0  0
    1.7750   -8.0542    0.0000 C   0  0  0  0  0  0  0  0  0  0  0  0
    1.7792   -8.7625    0.0000 C   0  0  0  0  0  0  0  0  0  0  0  0
    4.2292   -8.7417    0.0000 O   0  0  0  0  0  0  0  0  0  0  0  0
    5.1042   -9.7917    0.0000 O   0  0  0  0  0  0  0  0  0  0  0  0
    2.3792   -7.6917    0.0000 O   0  0  0  0  0  0  0  0  0  0  0  0
    1.1667   -9.1167    0.0000 C   0  0  0  0  0  0  0  0  0  0  0  0
    5.0875  -11.0250    0.0000 O   0  0  0  0  0  0  0  0  0  0  0  0
    1.1542   -7.7042    0.0000 O   0  0  0  0  0  0  0  0  0  0  0  0
    0.5542   -8.7667    0.0000 C   0  0  0  0  0  0  0  0  0  0  0  0
    2.2792   -9.8042    0.0000 C   0  0  0  0  0  0  0  0  0  0  0  0
   -0.0625   -9.1167    0.0000 C   0  0  0  0  0  0  0  0  0  0  0  0
    2.2667  -10.9417    0.0000 C   0  0  0  0  0  0  0  0  0  0  0  0
    1.8542  -10.3667    0.0000 C   0  0  0  0  0  0  0  0  0  0  0  0
    3.0000   -8.0417    0.0000 C   0  0  0  0  0  0  0  0  0  0  0  0
    0.5417   -8.0625    0.0000 C   0  0  0  0  0  0  0  0  0  0  0  0
   -0.0583   -9.8250    0.0000 C   0  0  0  0  0  0  0  0  0  0  0  0
   -0.6708   -8.7625    0.0000 C   0  0  0  0  0  0  0  0  0  0  0  0
   -0.0708   -7.7125    0.0000 C   0  0  0  0  0  0  0  0  0  0  0  0
   -0.6708  -10.1792    0.0000 C   0  0  0  0  0  0  0  0  0  0  0  0
   -1.2833   -9.1167    0.0000 C   0  0  0  0  0  0  0  0  0  0  0  0
   -1.2833   -9.8250    0.0000 C   0  0  0  0  0  0  0  0  0  0  0  0
    2.9417   -9.3167    0.0000 H   0  0  0  0  0  0  0  0  0  0  0  0
    2.9375  -11.4417    0.0000 H   0  0  0  0  0  0  0  0  0  0  0  0
  2  1  1  0
  3  1  1  0
  4  1  1  0
  5  2  1  0
  2  6  1  6
  7  9  1  0
  8  4  1  0
  9  3  1  0
 11 10  1  1
 11  7  1  0
 12  3  2  0
 13  6  2  0
 14 10  2  0
 15 11  1  0
 16  6  1  0
 17 10  1  0
 18 15  1  0
 19  4  1  0
 20 18  1  0
 21  8  1  0
 22 19  1  0
  9 23  1  1
 24 17  1  0
 25 20  1  0
 26 20  2  0
 27 24  1  0
 28 25  2  0
 29 26  1  0
 30 29  2  0
  4 31  1  1
  8 32  1  1
  5  8  1  0
 21 22  1  0
 30 28  1  0
M  END


> <chembl_id>
CHEMBL1168

> <chembl_pref_name>
RAMIPRIL

$$$$

     RDKit          2D

 45 50  0  0  0  0  0  0  0  0999 V2000
    8.0360   -4.3184    0.0000 C   0  0  0  0  0  0  0  0  0  0  0  0
    8.3733   -3.5647    0.0000 N   0  0  0  0  0  0  0  0  0  0  0  0
    7.7616   -3.0163    0.0000 C   0  0  0  0  0  0  0  0  0  0  0  0
    7.0465   -3.4284    0.0000 C   0  0  0  0  0  0  0  0  0  0  0  0
    7.2187   -4.2337    0.0000 N   0  0  0  0  0  0  0  0  0  0  0  0
    7.7616   -2.1921    0.0000 C   0  0  0  0  0  0  0  0  0  0  0  0
    7.0465   -1.7800    0.0000 C   0  0  0  0  0  0  0  0  0  0  0  0
    6.3312   -2.1921    0.0000 C   0  0  0  0  0  0  0  0  0  0  0  0
    6.3312   -3.0163    0.0000 C   0  0  0  0  0  0  0  0  0  0  0  0
    8.4726   -1.7800    0.0000 C   0  0  0  0  0  0  0  0  0  0  0  0
    9.1878   -2.1921    0.0000 O   0  0  0  0  0  0  0  0  0  0  0  0
    8.4726   -0.9558    0.0000 O   0  0  0  0  0  0  0  0  0  0  0  0
    9.1785   -3.3966    0.0000 C   0  0  0  0  0  0  0  0  0  0  0  0
    9.9029   -3.7857    0.0000 C   0  0  0  0  0  0  0  0  0  0  0  0
   10.6090   -3.3576    0.0000 C   0  0  0  0  0  0  0  0  0  0  0  0
   11.3295   -3.7532    0.0000 C   0  0  0  0  0  0  0  0  0  0  0  0
   11.3520   -4.5745    0.0000 C   0  0  0  0  0  0  0  0  0  0  0  0
   10.6472   -5.0066    0.0000 C   0  0  0  0  0  0  0  0  0  0  0  0
    9.9226   -4.6122    0.0000 C   0  0  0  0  0  0  0  0  0  0  0  0
   12.0766   -4.9689    0.0000 C   0  0  0  0  0  0  0  0  0  0  0  0
   12.7786   -4.5420    0.0000 C   0  0  0  0  0  0  0  0  0  0  0  0
   13.5032   -4.9364    0.0000 C   0  0  0  0  0  0  0  0  0  0  0  0
   13.5217   -5.7589    0.0000 C   0  0  0  0  0  0  0  0  0  0  0  0
   12.8208   -6.1898    0.0000 C   0  0  0  0  0  0  0  0  0  0  0  0
   12.0963   -5.7955    0.0000 C   0  0  0  0  0  0  0  0  0  0  0  0
   12.0802   -3.2510    0.0000 N   0  0  0  0  0  0  0  0  0  0  0  0
   12.3127   -2.4593    0.0000 N   0  0  0  0  0  0  0  0  0  0  0  0
   13.1392   -2.4397    0.0000 N   0  0  0  0  0  0  0  0  0  0  0  0
   13.4148   -3.2159    0.0000 N   0  0  0  0  0  0  0  0  0  0  0  0
   12.7589   -3.7154    0.0000 C   0  0  0  0  0  0  0  0  0  0  0  0
    8.4481   -5.0336    0.0000 O   0  0  0  0  0  0  0  0  0  0  0  0
    8.0360   -5.7487    0.0000 C   0  0  0  0  0  0  0  0  0  0  0  0
    8.4481   -6.4597    0.0000 C   0  0  0  0  0  0  0  0  0  0  0  0
    9.1878   -0.5437    0.0000 C   0  0  0  0  0  0  0  0  0  0  0  0
    9.9030   -0.9558    0.0000 C   0  0  0  0  0  0  0  0  0  0  0  0
    9.1878    0.2805    0.0000 O   0  0  0  0  0  0  0  0  0  0  0  0
    9.9030    0.6926    0.0000 C   0  0  0  0  0  0  0  0  0  0  0  0
   10.6141    0.2805    0.0000 O   0  0  0  0  0  0  0  0  0  0  0  0
    9.9030    1.5168    0.0000 O   0  0  0  0  0  0  0  0  0  0  0  0
   10.6141    1.9290    0.0000 C   0  0  0  0  0  0  0  0  0  0  0  0
   10.6141    2.7532    0.0000 C   0  0  0  0  0  0  0  0  0  0  0  0
   11.3292    3.1653    0.0000 C   0  0  0  0  0  0  0  0  0  0  0  0
   12.0444    2.7532    0.0000 C   0  0  0  0  0  0  0  0  0  0  0  0
   12.0444    1.9290    0.0000 C   0  0  0  0  0  0  0  0  0  0  0  0
   11.3292    1.5168    0.0000 C   0  0  0  0  0  0  0  0  0  0  0  0
  1  2  1  0
  2  3  1  0
  3  4  1  0
  4  5  1  0
  1  5  2  0
  6  7  1  0
  7  8  2  0
  8  9  1  0
  4  9  2  0
  3  6  2  0
 10 11  2  0
 10 12  1  0
  6 10  1  0
 14 15  1  0
 15 16  2  0
 16 17  1  0
 17 18  2  0
 18 19  1  0
 14 19  2  0
 20 21  1  0
 21 22  2  0
 22 23  1  0
 23 24  2  0
 24 25  1  0
 20 25  2  0
 26 27  1  0
 27 28  1  0
 28 29  2  0
 29 30  1  0
 26 30  2  0
 21 30  1  0
 17 20  1  0
 13 14  1  0
  2 13  1  0
 32 33  1  0
 31 32  1  0
  1 31  1  0
 34 35  1  0
 37 38  2  0
 40 41  1  0
 41 42  1  0
 42 43  1  0
 43 44  1  0
 44 45  1  0
 40 45  1  0
 39 40  1  0
 37 39  1  0
 36 37  1  0
 34 36  1  0
 12 34  1  0
M  END

> <chembl_id>
CHEMBL1014

> <chembl_pref_name>
CANDESARTAN CILEXETIL

$$$$

     RDKit          2D

 14 14  0  0  1  0  0  0  0  0999 V2000
    5.3167   -5.4375    0.0000 N   0  0  0  0  0  0  0  0  0  0  0  0
    5.3167   -4.7292    0.0000 C   0  0  0  0  0  0  0  0  0  0  0  0
    5.8917   -5.8542    0.0000 C   0  0  0  0  0  0  0  0  0  0  0  0
    6.5042   -5.4917    0.0000 C   0  0  0  0  0  0  0  0  0  0  0  0
    4.7042   -4.3750    0.0000 C   0  0  0  0  0  0  0  0  0  0  0  0
    5.9292   -4.3750    0.0000 O   0  0  0  0  0  0  0  0  0  0  0  0
    6.4917   -4.7875    0.0000 O   0  0  0  0  0  0  0  0  0  0  0  0
    4.7417   -5.8542    0.0000 C   0  0  0  0  0  0  0  0  0  0  0  0
    7.1167   -5.8417    0.0000 O   0  0  0  0  0  0  0  0  0  0  0  0
    3.4792   -4.3750    0.0000 S   0  0  0  0  0  0  0  0  0  0  0  0
    4.0917   -4.7292    0.0000 C   0  0  0  0  0  0  0  0  0  0  0  0
    5.6750   -6.5292    0.0000 C   0  0  0  0  0  0  0  0  0  0  0  0
    4.9625   -6.5292    0.0000 C   0  0  0  0  0  0  0  0  0  0  0  0
    4.7042   -3.6667    0.0000 C   0  0  0  0  0  0  0  0  0  0  0  0
  2  1  1  0
  3  1  1  0
  3  4  1  6
  5  2  1  0
  6  2  2  0
  7  4  2  0
  8  1  1  0
  9  4  1  0
 10 11  1  0
 11  5  1  0
 12  3  1  0
 13  8  1  0
  5 14  1  1
 12 13  1  0
M  END


> <chembl_id>
CHEMBL1560

> <chembl_pref_name>
CAPTOPRIL

$$$$

     RDKit          2D

 39 41  0  0  1  0  0  0  0  0999 V2000
   12.9842   -5.3377    0.0000 N   0  0  0  0  0  0  0  0  0  0  0  0
   12.9842   -4.4939    0.0000 C   0  0  0  0  0  0  0  0  0  0  0  0
   13.6923   -5.7888    0.0000 C   0  0  0  0  0  0  0  0  0  0  0  0
   11.5875   -4.4939    0.0000 P   0  0  0  0  0  0  0  0  0  0  0  0
   12.3101   -4.1010    0.0000 C   0  0  0  0  0  0  0  0  0  0  0  0
   12.3683   -5.8179    0.0000 C   0  0  0  0  0  0  0  0  0  0  0  0
   10.8018   -4.1010    0.0000 O   0  0  0  0  0  0  0  0  0  0  0  0
   10.0694   -4.4939    0.0000 C   0  0  0  0  0  0  0  0  0  0  0  0
   13.4595   -6.6181    0.0000 C   0  0  0  0  0  0  0  0  0  0  0  0
   14.4343   -5.3523    0.0000 C   0  0  0  0  0  0  0  0  0  0  0  0
   12.5914   -6.6181    0.0000 C   0  0  0  0  0  0  0  0  0  0  0  0
    9.3322   -4.1010    0.0000 O   0  0  0  0  0  0  0  0  0  0  0  0
    8.6193   -4.4939    0.0000 C   0  0  0  0  0  0  0  0  0  0  0  0
   11.5875   -5.3377    0.0000 O   0  0  0  0  0  0  0  0  0  0  0  0
   13.7068   -4.0719    0.0000 O   0  0  0  0  0  0  0  0  0  0  0  0
   15.1522   -5.7888    0.0000 O   0  0  0  0  0  0  0  0  0  0  0  0
   14.4343   -4.6248    0.0000 O   0  0  0  0  0  0  0  0  0  0  0  0
    8.6193   -5.2795    0.0000 O   0  0  0  0  0  0  0  0  0  0  0  0
   11.8784   -7.0643    0.0000 C   0  0  0  0  0  0  0  0  0  0  0  0
   10.0694   -5.3959    0.0000 C   0  0  0  0  0  0  0  0  0  0  0  0
   11.5875   -3.5918    0.0000 C   0  0  0  0  0  0  0  0  0  0  0  0
   13.7263   -2.3405    0.0000 C   0  0  0  0  0  0  0  0  0  0  0  0
    7.9064   -4.0719    0.0000 C   0  0  0  0  0  0  0  0  0  0  0  0
   11.2043   -6.6181    0.0000 C   0  0  0  0  0  0  0  0  0  0  0  0
   11.8784   -7.8403    0.0000 C   0  0  0  0  0  0  0  0  0  0  0  0
   10.7727   -5.7888    0.0000 C   0  0  0  0  0  0  0  0  0  0  0  0
    9.3564   -5.7742    0.0000 C   0  0  0  0  0  0  0  0  0  0  0  0
   13.0133   -1.9282    0.0000 C   0  0  0  0  0  0  0  0  0  0  0  0
   14.4829   -1.9913    0.0000 C   0  0  0  0  0  0  0  0  0  0  0  0
   13.7263   -3.1698    0.0000 C   0  0  0  0  0  0  0  0  0  0  0  0
   12.3101   -3.1698    0.0000 C   0  0  0  0  0  0  0  0  0  0  0  0
   12.3101   -2.3405    0.0000 C   0  0  0  0  0  0  0  0  0  0  0  0
    7.1885   -4.4793    0.0000 C   0  0  0  0  0  0  0  0  0  0  0  0
   10.5108   -7.0643    0.0000 C   0  0  0  0  0  0  0  0  0  0  0  0
   11.1801   -8.2332    0.0000 C   0  0  0  0  0  0  0  0  0  0  0  0
   15.2104   -2.3647    0.0000 C   0  0  0  0  0  0  0  0  0  0  0  0
   14.4392   -3.5627    0.0000 C   0  0  0  0  0  0  0  0  0  0  0  0
   15.2104   -3.1698    0.0000 C   0  0  0  0  0  0  0  0  0  0  0  0
   10.5108   -7.8403    0.0000 C   0  0  0  0  0  0  0  0  0  0  0  0
  2  1  1  0
  3  1  1  0
  4  5  1  0
  5  2  1  0
  6  1  1  0
  7  4  1  0
  8  7  1  0
  9  3  1  0
  3 10  1  6
 11  6  1  0
 12  8  1  0
 13 12  1  0
 14  4  2  0
 15  2  2  0
 16 10  1  0
 17 10  2  0
 18 13  2  0
 11 19  1  1
  8 20  1  1
 22 28  1  0
 23 13  1  0
 24 19  1  0
 25 19  1  0
 26 20  1  0
 27 20  1  0
 28 32  1  0
 29 22  1  0
 30 22  2  0
 31 21  1  0
 32 31  1  0
 33 23  1  0
 34 24  1  0
 35 25  1  0
 36 29  2  0
 37 30  1  0
 38 36  1  0
 39 34  1  0
  9 11  1  0
 39 35  1  0
 38 37  2  0
  4 21  1  1
M  END

> <chembl_id>
CHEMBL3039598

> <chembl_pref_name>
FOSINOPRIL

$$$$

     RDKit          2D

 30 33  0  0  0  0  0  0  0  0999 V2000
    3.2917   -4.0667    0.0000 N   0  0  0  0  0  0  0  0  0  0  0  0
    2.7000   -3.6875    0.0000 C   0  0  0  0  0  0  0  0  0  0  0  0
    3.6417   -3.0000    0.0000 N   0  0  0  0  0  0  0  0  0  0  0  0
    2.9375   -3.0000    0.0000 C   0  0  0  0  0  0  0  0  0  0  0  0
    3.8792   -3.6875    0.0000 C   0  0  0  0  0  0  0  0  0  0  0  0
    6.3667   -5.1542    0.0000 C   0  0  0  0  0  0  0  0  0  0  0  0
    6.7292   -4.1042    0.0000 N   0  0  0  0  0  0  0  0  0  0  0  0
    6.9375   -4.7792    0.0000 N   0  0  0  0  0  0  0  0  0  0  0  0
    6.0125   -4.1042    0.0000 N   0  0  0  0  0  0  0  0  0  0  0  0
    5.8042   -4.7792    0.0000 N   0  0  0  0  0  0  0  0  0  0  0  0
    6.3667   -5.8417    0.0000 C   0  0  0  0  0  0  0  0  0  0  0  0
    5.7625   -6.2167    0.0000 C   0  0  0  0  0  0  0  0  0  0  0  0
    3.3042   -4.7917    0.0000 C   0  0  0  0  0  0  0  0  0  0  0  0
    5.1417   -5.8792    0.0000 C   0  0  0  0  0  0  0  0  0  0  0  0
    2.5167   -2.4042    0.0000 Cl  0  0  0  0  0  0  0  0  0  0  0  0
    2.0875   -4.0167    0.0000 C   0  0  0  0  0  0  0  0  0  0  0  0
    4.5292   -6.2375    0.0000 C   0  0  0  0  0  0  0  0  0  0  0  0
    5.1417   -5.1542    0.0000 C   0  0  0  0  0  0  0  0  0  0  0  0
    3.9125   -5.1542    0.0000 C   0  0  0  0  0  0  0  0  0  0  0  0
    4.4792   -4.0667    0.0000 C   0  0  0  0  0  0  0  0  0  0  0  0
    3.9125   -5.8792    0.0000 C   0  0  0  0  0  0  0  0  0  0  0  0
    4.5292   -4.7792    0.0000 C   0  0  0  0  0  0  0  0  0  0  0  0
    6.9875   -6.2167    0.0000 C   0  0  0  0  0  0  0  0  0  0  0  0
    1.4542   -3.6875    0.0000 O   0  0  0  0  0  0  0  0  0  0  0  0
    5.7625   -6.9250    0.0000 C   0  0  0  0  0  0  0  0  0  0  0  0
    5.0917   -3.7292    0.0000 C   0  0  0  0  0  0  0  0  0  0  0  0
    5.0875   -3.0292    0.0000 C   0  0  0  0  0  0  0  0  0  0  0  0
    6.9875   -6.9250    0.0000 C   0  0  0  0  0  0  0  0  0  0  0  0
    6.3667   -7.2792    0.0000 C   0  0  0  0  0  0  0  0  0  0  0  0
    5.7375   -2.6375    0.0000 C   0  0  0  0  0  0  0  0  0  0  0  0
  2  1  1  0
  3  5  2  0
  4  2  2  0
  5  1  1  0
  6 11  1  0
  7  8  1  0
  8  6  1  0
  9 10  1  0
 10  6  2  0
 11 12  2  0
 12 14  1  0
 13  1  1  0
 14 18  2  0
 15  4  1  0
 16  2  1  0
 17 21  2  0
 18 22  1  0
 19 13  1  0
 20  5  1  0
 21 19  1  0
 22 19  2  0
 23 11  1  0
 24 16  1  0
 25 12  1  0
 26 20  1  0
 27 26  1  0
 28 29  1  0
 29 25  2  0
 30 27  1  0
  4  3  1  0
 14 17  1  0
 28 23  2  0
  7  9  2  0
M  END


> <chembl_id>
CHEMBL191

> <chembl_pref_name>
LOSARTAN

$$$$

     RDKit          2D

 31 33  0  0  1  0  0  0  0  0999 V2000
    5.7292   -5.1417    0.0000 N   0  0  0  0  0  0  0  0  0  0  0  0
    5.0667   -5.3917    0.0000 C   0  0  0  0  0  0  0  0  0  0  0  0
    5.9917   -4.5167    0.0000 C   0  0  0  0  0  0  0  0  0  0  0  0
    4.4792   -5.0000    0.0000 C   0  0  0  0  0  0  0  0  0  0  0  0
    3.8875   -5.3292    0.0000 N   0  0  0  0  0  0  0  0  0  0  0  0
    6.0917   -5.7542    0.0000 C   0  0  0  0  0  0  0  0  0  0  0  0
    3.2750   -4.2417    0.0000 C   0  0  0  0  0  0  0  0  0  0  0  0
    3.2750   -4.9667    0.0000 C   0  0  0  0  0  0  0  0  0  0  0  0
    6.8042   -5.7375    0.0000 C   0  0  0  0  0  0  0  0  0  0  0  0
    5.0667   -6.0667    0.0000 O   0  0  0  0  0  0  0  0  0  0  0  0
    5.6167   -3.8417    0.0000 C   0  0  0  0  0  0  0  0  0  0  0  0
    4.4167   -4.2792    0.0000 C   0  0  0  0  0  0  0  0  0  0  0  0
    3.8917   -3.8792    0.0000 O   0  0  0  0  0  0  0  0  0  0  0  0
    7.1667   -5.1250    0.0000 O   0  0  0  0  0  0  0  0  0  0  0  0
    4.9417   -3.7875    0.0000 C   0  0  0  0  0  0  0  0  0  0  0  0
    2.6542   -5.3292    0.0000 C   0  0  0  0  0  0  0  0  0  0  0  0
    2.6417   -3.8792    0.0000 O   0  0  0  0  0  0  0  0  0  0  0  0
    7.1417   -6.3625    0.0000 O   0  0  0  0  0  0  0  0  0  0  0  0
    2.0375   -4.9792    0.0000 C   0  0  0  0  0  0  0  0  0  0  0  0
    1.4250   -5.3375    0.0000 C   0  0  0  0  0  0  0  0  0  0  0  0
    6.6792   -4.5083    0.0000 C   0  0  0  0  0  0  0  0  0  0  0  0
    6.0042   -3.2625    0.0000 C   0  0  0  0  0  0  0  0  0  0  0  0
    2.0042   -4.2375    0.0000 C   0  0  0  0  0  0  0  0  0  0  0  0
    1.4250   -6.0667    0.0000 C   0  0  0  0  0  0  0  0  0  0  0  0
    0.8042   -4.9792    0.0000 C   0  0  0  0  0  0  0  0  0  0  0  0
    7.0542   -3.9125    0.0000 C   0  0  0  0  0  0  0  0  0  0  0  0
    1.3792   -3.8792    0.0000 C   0  0  0  0  0  0  0  0  0  0  0  0
    6.7125   -3.2625    0.0000 C   0  0  0  0  0  0  0  0  0  0  0  0
    0.8042   -6.4292    0.0000 C   0  0  0  0  0  0  0  0  0  0  0  0
    0.1792   -5.3375    0.0000 C   0  0  0  0  0  0  0  0  0  0  0  0
    0.1792   -6.0667    0.0000 C   0  0  0  0  0  0  0  0  0  0  0  0
  2  1  1  0
  3  1  1  0
  4  2  1  0
  4  5  1  1
  6  1  1  0
  8  7  1  1
  8  5  1  0
  9  6  1  0
 10  2  2  0
 11  3  1  0
 12  4  1  0
 13  7  2  0
 14  9  2  0
 15 11  1  0
 16  8  1  0
 17  7  1  0
 18  9  1  0
 19 16  1  0
 20 19  1  0
 21  3  2  0
 22 11  2  0
 23 17  1  0
 24 20  2  0
 25 20  1  0
 26 21  1  0
 27 23  1  0
 28 26  2  0
 29 24  1  0
 30 25  2  0
 31 29  2  0
 12 15  1  0
 28 22  1  0
 31 30  1  0
M  END

> <chembl_id>
CHEMBL838

> <chembl_pref_name>
BENAZEPRIL

$$$$


