
  Mrv0541 08311310412D          

 28 29  0  0  0  0            999 V2000
    0.5984   -1.0216    0.0000 C   0  0  0  0  0  0  0  0  0  0  0  0
   -4.4029    1.0409    0.0000 C   0  0  0  0  0  0  0  0  0  0  0  0
   -4.4029    0.2159    0.0000 C   0  0  0  0  0  0  0  0  0  0  0  0
   -3.6884    1.4534    0.0000 C   0  0  0  0  0  0  0  0  0  0  0  0
    2.9206   -1.1886    0.0000 C   0  0  0  0  0  0  0  0  0  0  0  0
   -3.6884   -0.1966    0.0000 C   0  0  0  0  0  0  0  0  0  0  0  0
   -2.9739    1.0409    0.0000 C   0  0  0  0  0  0  0  0  0  0  0  0
    3.3331   -0.4741    0.0000 C   0  0  0  0  0  0  0  0  0  0  0  0
   -2.2595   -0.1966    0.0000 C   0  0  0  0  0  0  0  0  0  0  0  0
   -1.5450    0.2159    0.0000 C   0  0  0  0  0  0  0  0  0  0  0  0
    2.1136   -1.0171    0.0000 C   0  0  0  0  0  0  0  0  0  0  0  0
    0.5984   -0.1966    0.0000 C   0  0  1  0  0  0  0  0  0  0  0  0
   -2.9739    0.2159    0.0000 C   0  0  0  0  0  0  0  0  0  0  0  0
   -0.8305   -0.1966    0.0000 C   0  0  1  0  0  0  0  0  0  0  0  0
    2.7810    0.1390    0.0000 C   0  0  1  0  0  0  0  0  0  0  0  0
    1.3129    0.2159    0.0000 C   0  0  0  0  0  0  0  0  0  0  0  0
   -0.8305   -1.0216    0.0000 C   0  0  0  0  0  0  0  0  0  0  0  0
    2.9526    0.9460    0.0000 C   0  0  0  0  0  0  0  0  0  0  0  0
   -0.1161    0.2159    0.0000 N   0  0  0  0  0  0  0  0  0  0  0  0
    2.0274   -0.1966    0.0000 N   0  0  0  0  0  0  0  0  0  0  0  0
    1.3129    1.0409    0.0000 O   0  0  0  0  0  0  0  0  0  0  0  0
   -0.1161   -1.4341    0.0000 O   0  0  0  0  0  0  0  0  0  0  0  0
   -1.5450   -1.4341    0.0000 O   0  0  0  0  0  0  0  0  0  0  0  0
    2.3395    1.4980    0.0000 O   0  0  0  0  0  0  0  0  0  0  0  0
    3.7372    1.2009    0.0000 O   0  0  0  0  0  0  0  0  0  0  0  0
    1.3129   -0.6091    0.0000 H   0  0  0  0  0  0  0  0  0  0  0  0
   -1.5450   -0.6091    0.0000 H   0  0  0  0  0  0  0  0  0  0  0  0
    3.5779    0.3525    0.0000 H   0  0  0  0  0  0  0  0  0  0  0  0
  3  2  2  0  0  0  0
  4  2  1  0  0  0  0
  6  3  1  0  0  0  0
  7  4  2  0  0  0  0
  8  5  1  0  0  0  0
 10  9  1  0  0  0  0
 11  5  1  0  0  0  0
 12  1  1  6  0  0  0
 13  6  2  0  0  0  0
 13  7  1  0  0  0  0
 13  9  1  0  0  0  0
 14 10  1  0  0  0  0
 15  8  1  0  0  0  0
 16 12  1  0  0  0  0
 17 14  1  0  0  0  0
 15 18  1  6  0  0  0
 19 12  1  0  0  0  0
 14 19  1  1  0  0  0
 20 11  1  0  0  0  0
 20 15  1  0  0  0  0
 20 16  1  0  0  0  0
 21 16  2  0  0  0  0
 22 17  2  0  0  0  0
 23 17  1  0  0  0  0
 24 18  2  0  0  0  0
 25 18  1  0  0  0  0
 12 26  1  1  0  0  0
 14 27  1  1  0  0  0
 15 28  1  1  0  0  0
M  END
> <DATABASE_ID>
DB09477

> <DATABASE_NAME>
drugbank

> <SMILES>
[H][C@@](C)(N[C@@]([H])(CCC1=CC=CC=C1)C(O)=O)C(=O)N1CCC[C@@]1([H])C(O)=O

> <INCHI_IDENTIFIER>
InChI=1S/C18H24N2O5/c1-12(16(21)20-11-5-8-15(20)18(24)25)19-14(17(22)23)10-9-13-6-3-2-4-7-13/h2-4,6-7,12,14-15,19H,5,8-11H2,1H3,(H,22,23)(H,24,25)/t12-,14-,15-/m0/s1

> <INCHI_KEY>
LZFZMUMEGBBDTC-QEJZJMRPSA-N

> <FORMULA>
C18H24N2O5

> <MOLECULAR_WEIGHT>
348.3936

> <EXACT_MASS>
348.168521888

> <JCHEM_ACCEPTOR_COUNT>
6

> <JCHEM_ATOM_COUNT>
49

> <JCHEM_AVERAGE_NEUTRAL_MICROSPECIES_CHARGE>
-1.0047515124225022

> <JCHEM_AVERAGE_POLARIZABILITY>
35.82306066381687

> <JCHEM_BIOAVAILABILITY>
1

> <JCHEM_DONOR_COUNT>
3

> <JCHEM_FORMAL_CHARGE>
0

> <JCHEM_GHOSE_FILTER>
0

> <JCHEM_IUPAC>
(2S)-1-[(2S)-2-{[(1S)-1-carboxy-3-phenylpropyl]amino}propanoyl]pyrrolidine-2-carboxylic acid

> <ALOGPS_LOGP>
-0.09

> <JCHEM_LOGP>
-1.0502586259696762

> <ALOGPS_LOGS>
-2.60

> <JCHEM_MDDR_LIKE_RULE>
0

> <JCHEM_NEUTRAL_CHARGE>
-1

> <JCHEM_NUMBER_OF_RINGS>
2

> <JCHEM_PHYSIOLOGICAL_CHARGE>
-1

> <JCHEM_PKA>
3.9633227574021888

> <JCHEM_PKA_STRONGEST_ACIDIC>
3.1329349872838383

> <JCHEM_PKA_STRONGEST_BASIC>
7.833135249089682

> <JCHEM_POLAR_SURFACE_AREA>
106.94000000000001

> <JCHEM_REFRACTIVITY>
90.05689999999997

> <JCHEM_ROTATABLE_BOND_COUNT>
8

> <JCHEM_RULE_OF_FIVE>
1

> <ALOGPS_SOLUBILITY>
8.76e-01 g/l

> <JCHEM_TRADITIONAL_IUPAC>
tetrahydrofolic acid

> <JCHEM_VEBER_RULE>
0

> <DRUGBANK_ID>
DB09477

> <DRUG_GROUPS>
approved

> <GENERIC_NAME>
Enalaprilat

> <SYNONYMS>
Enalaprilat; Enalaprilat anhydrous

> <PRODUCTS>
Enalaprilat; Enalaprilat Injection USP; Vasotec IV

> <SALTS>
Enalaprilat dihydrate

$$$$

  Mrv0541 04191212112D          

 33 36  0  0  0  0            999 V2000
    0.0000    0.8250    0.0000 C   0  0  0  0  0  0  0  0  0  0  0  0
    0.7145    0.4125    0.0000 C   0  0  0  0  0  0  0  0  0  0  0  0
    0.7145   -0.4125    0.0000 C   0  0  0  0  0  0  0  0  0  0  0  0
    0.0000   -0.8250    0.0000 C   0  0  0  0  0  0  0  0  0  0  0  0
   -0.7145   -0.4125    0.0000 C   0  0  0  0  0  0  0  0  0  0  0  0
   -0.7145    0.4125    0.0000 N   0  0  0  0  0  0  0  0  0  0  0  0
    0.7145    2.0625    0.0000 C   0  0  0  0  0  0  0  0  0  0  0  0
    0.0000    1.6500    0.0000 C   0  0  0  0  0  0  0  0  0  0  0  0
    1.4289    0.8250    0.0000 C   0  0  0  0  0  0  0  0  0  0  0  0
    1.4289    1.6500    0.0000 C   0  0  0  0  0  0  0  0  0  0  0  0
    0.0000   -1.6500    0.0000 C   0  0  0  0  0  0  0  0  0  0  0  0
    0.7145   -2.0625    0.0000 C   0  0  0  0  0  0  0  0  0  0  0  0
    1.4289   -1.6500    0.0000 C   0  0  0  0  0  0  0  0  0  0  0  0
    1.4289   -0.8250    0.0000 C   0  0  0  0  0  0  0  0  0  0  0  0
   -1.4991    0.6674    0.0000 N   0  0  0  0  0  0  0  0  0  0  0  0
   -1.9840    0.0000    0.0000 N   0  0  0  0  0  0  0  0  0  0  0  0
   -1.4991   -0.6674    0.0000 N   0  0  0  0  0  0  0  0  0  0  0  0
    0.7145    2.8875    0.0000 C   0  0  0  0  0  0  0  0  0  0  0  0
    2.2136    3.0451    0.0000 C   0  0  0  0  0  0  0  0  0  0  0  0
    2.6985    3.7125    0.0000 N   0  0  0  0  0  0  0  0  0  0  0  0
    1.4289    3.3000    0.0000 N   0  0  0  0  0  0  0  0  0  0  0  0
    2.4685    2.2604    0.0000 C   0  0  0  0  0  0  0  0  0  0  0  0
    3.2755    2.0889    0.0000 C   0  0  0  0  0  0  0  0  0  0  0  0
    3.5304    1.3043    0.0000 C   0  0  0  0  0  0  0  0  0  0  0  0
    1.4289    4.1250    0.0000 C   0  0  0  0  0  0  0  0  0  0  0  0
    0.7145    4.5375    0.0000 C   0  0  0  0  0  0  0  0  0  0  0  0
    0.7145    5.3625    0.0000 O   0  0  0  0  0  0  0  0  0  0  0  0
    0.0000    4.1250    0.0000 O   0  0  0  0  0  0  0  0  0  0  0  0
    2.2136    4.3799    0.0000 C   0  0  0  0  0  0  0  0  0  0  0  0
    2.4685    5.1646    0.0000 C   0  0  0  0  0  0  0  0  0  0  0  0
    1.9165    5.7777    0.0000 C   0  0  0  0  0  0  0  0  0  0  0  0
    3.2755    5.3361    0.0000 C   0  0  0  0  0  0  0  0  0  0  0  0
    2.7234    5.9492    0.0000 O   0  0  0  0  0  0  0  0  0  0  0  0
  8  1  2  0  0  0  0
  1  2  1  0  0  0  0
  2  9  2  0  0  0  0
  2  3  1  0  0  0  0
  3 14  1  0  0  0  0
  3  4  2  0  0  0  0
  4 11  1  0  0  0  0
  4  5  1  0  0  0  0
  5 17  2  0  0  0  0
  5  6  1  0  0  0  0
  6 15  1  0  0  0  0
 18  7  1  0  0  0  0
  7  8  1  0  0  0  0
  7 10  2  0  0  0  0
  9 10  1  0  0  0  0
 11 12  2  0  0  0  0
 12 13  1  0  0  0  0
 13 14  2  0  0  0  0
 15 16  2  0  0  0  0
 16 17  1  0  0  0  0
 21 18  1  0  0  0  0
 19 20  2  0  0  0  0
 19 21  1  0  0  0  0
 19 22  1  0  0  0  0
 20 29  1  0  0  0  0
 29 25  2  0  0  0  0
 25 21  1  0  0  0  0
 22 23  1  0  0  0  0
 23 24  1  0  0  0  0
 25 26  1  0  0  0  0
 26 28  1  0  0  0  0
 26 27  2  0  0  0  0
 29 30  1  0  0  0  0
 30 33  1  0  0  0  0
 30 31  1  0  0  0  0
 30 32  1  0  0  0  0
M  END
> <DATABASE_ID>
DB00275

> <DATABASE_NAME>
drugbank

> <SMILES>
CCCC1=NC(=C(N1CC1=CC=C(C=C1)C1=C(C=CC=C1)C1=NN=NN1)C(O)=O)C(C)(C)O

> <INCHI_IDENTIFIER>
InChI=1S/C24H26N6O3/c1-4-7-19-25-21(24(2,3)33)20(23(31)32)30(19)14-15-10-12-16(13-11-15)17-8-5-6-9-18(17)22-26-28-29-27-22/h5-6,8-13,33H,4,7,14H2,1-3H3,(H,31,32)(H,26,27,28,29)

> <INCHI_KEY>
VTRAEEWXHOVJFV-UHFFFAOYSA-N

> <FORMULA>
C24H26N6O3

> <MOLECULAR_WEIGHT>
446.5016

> <EXACT_MASS>
446.206638728

> <JCHEM_ACCEPTOR_COUNT>
7

> <JCHEM_ATOM_COUNT>
59

> <JCHEM_AVERAGE_NEUTRAL_MICROSPECIES_CHARGE>
-1.9006130940999542

> <JCHEM_AVERAGE_POLARIZABILITY>
47.52384277662581

> <JCHEM_BIOAVAILABILITY>
1

> <JCHEM_DONOR_COUNT>
3

> <JCHEM_FORMAL_CHARGE>
0

> <JCHEM_GHOSE_FILTER>
0

> <JCHEM_IUPAC>
4-(2-hydroxypropan-2-yl)-2-propyl-1-{[2'-(1H-1,2,3,4-tetrazol-5-yl)-[1,1'-biphenyl]-4-yl]methyl}-1H-imidazole-5-carboxylic acid

> <ALOGPS_LOGP>
2.98

> <JCHEM_LOGP>
2.1579002673482983

> <ALOGPS_LOGS>
-4.63

> <JCHEM_MDDR_LIKE_RULE>
1

> <JCHEM_NEUTRAL_CHARGE>
-2

> <JCHEM_NUMBER_OF_RINGS>
4

> <JCHEM_PHYSIOLOGICAL_CHARGE>
-2

> <JCHEM_PKA>
4.943020612909525

> <JCHEM_PKA_STRONGEST_ACIDIC>
0.8851026710720384

> <JCHEM_PKA_STRONGEST_BASIC>
5.325080924969429

> <JCHEM_POLAR_SURFACE_AREA>
129.81

> <JCHEM_REFRACTIVITY>
137.3237

> <JCHEM_ROTATABLE_BOND_COUNT>
8

> <JCHEM_RULE_OF_FIVE>
1

> <ALOGPS_SOLUBILITY>
1.05e-02 g/l

> <JCHEM_TRADITIONAL_IUPAC>
biotin

> <JCHEM_VEBER_RULE>
0

> <DRUGBANK_ID>
DB00275

> <SECONDARY_ACCESSION_NUMBERS>
APRD00223

> <DRUG_GROUPS>
approved; investigational

> <GENERIC_NAME>
Olmesartan

> <SYNONYMS>
4-(1-hydroxy-1-methylethyl)-2-propyl-1-{[2'-(1H-tetrazol-5-yl)biphenyl-4-yl]methyl}-1H-imidazole-5-carboxylic acid; 4-(hydroxy-1-methylethyl)-2-propyl-1-{[2'-(1H-tetrazol-5-yl)-1,1'-biphenyl-4-yl]methyl}-1H-imidazole-5-carboxylic acid; Olmesartan

> <PRODUCTS>
AMLODIPINE and OLMESARTAN medoxomil; Ach-olmesartan; Ach-olmesartan Hctz; Act Olmesartan HCT; Ag-olmesartan; Ag-olmesartan Hctz; Amlodipine Besylate and Olmesartan Medoxomil; Amlodipine and Olmesartan Medoxomil; Amlodipine and olmesartan Medoxomil; Amlodipine and olmesartan medoxomil; Amlodipine besylate and Olmesartan medoxomil; Amlodipine besylate and Olmesartran medoxomil; Apo-olmesartan; Apo-olmesartan/hctz; Auro-olmesartan; Auro-olmesartan Hctz; Azor; Benicar; Benicar HCT; Benicar Hct; Gln-olmesartan; Gln-olmesartan Hctz; Jamp Olmesartan; Jamp-olmesartan Hctz; M-olmesartan; Med-olmesartan; Nra-olmesartan; Nra-olmesartan Hctz; OLMESARTAN MEDOXOMIL and HYDROCHLOROTHIAZIDE; Olmesartan; Olmesartan Medoxmil and Hydrochlorothiazide; Olmesartan Medoxomil; Olmesartan Medoxomil / Amlodipine Besylate / Hydrochlorothiazide; Olmesartan Medoxomil / Hydrochlorothiazide; Olmesartan Medoxomil and Hydrochlorothiazide; Olmesartan Medoxomil, Amlodipine and Hydrochlorothiazide; Olmesartan Medoxomil, Amlodipine and Hydrochlorothiazide 20/5/12.5 mg; Olmesartan Medoxomil, Amlodipine and Hydrochlorothiazide 40/10/12.5 mg; Olmesartan Medoxomil, Amlodipine and Hydrochlorothiazide 40/10/25 mg; Olmesartan Medoxomil, Amlodipine and Hydrochlorothiazide 40/5/12.5 mg; Olmesartan Medoxomil, Amlodipine and Hydrochlorothiazide 40/5/25 mg; Olmesartan Medoxomil/hctz; Olmesartan medoxomil; Olmesartan/hctz; Olmetec; Olmetec Plus; PMS-olmesartan; PMS-olmesartan-hctz; Prz-olmesartan; Prz-olmesartan/hctz; Riva-olmesartan; Sandoz Olmesartan; Sandoz Olmesartan Hctz; Teva-olmesartan; Teva-olmesartan/hctz; Tribenzor

> <INTERNATIONAL_BRANDS>
Erastapex; Golme; Olmy; Olsar; Olvance; WinBP

> <SALTS>
Olmesartan medoxomil

$$$$
1180
  Mrv0541 02231215182D          

 49 54  0  0  1  0            999 V2000
    9.0363   -1.7074    0.0000 O   0  0  0  0  0  0  0  0  0  0  0  0
   10.1908   -0.4251    0.0000 O   0  0  0  0  0  0  0  0  0  0  0  0
    7.5971   -2.1231    0.0000 O   0  0  0  0  0  0  0  0  0  0  0  0
    6.5463   -1.1548    0.0000 O   0  0  0  0  0  0  0  0  0  0  0  0
   10.4823    0.9736    0.0000 O   0  0  0  0  0  0  0  0  0  0  0  0
    2.2047    1.5699    0.0000 O   0  0  0  0  0  0  0  0  0  0  0  0
   14.2286   -1.2671    0.0000 O   0  0  0  0  0  0  0  0  0  0  0  0
   14.8118    1.5303    0.0000 O   0  0  0  0  0  0  0  0  0  0  0  0
   15.3278   -0.0368    0.0000 O   0  0  0  0  0  0  0  0  0  0  0  0
    7.1069    1.7458    0.0000 N   0  0  0  0  0  0  0  0  0  0  0  0
    5.0832    0.8239    0.0000 N   0  0  0  0  0  0  0  0  0  0  0  0
    7.6469    0.1264    0.0000 C   0  0  2  0  0  0  0  0  0  0  0  0
    8.2218    0.7649    0.0000 C   0  0  1  0  0  0  0  0  0  0  0  0
    6.8078    0.3115    0.0000 C   0  0  0  0  0  0  0  0  0  0  0  0
    7.9102   -0.7289    0.0000 C   0  0  1  0  0  0  0  0  0  0  0  0
    6.5548    1.1327    0.0000 C   0  0  2  0  0  0  0  0  0  0  0  0
    7.9499    1.5801    0.0000 C   0  0  0  0  0  0  0  0  0  0  0  0
    9.1000    0.5924    0.0000 C   0  0  0  0  0  0  0  0  0  0  0  0
    8.7843   -0.9218    0.0000 C   0  0  2  0  0  0  0  0  0  0  0  0
    9.3832   -0.2567    0.0000 C   0  0  2  0  0  0  0  0  0  0  0  0
    5.7480    1.3042    0.0000 C   0  0  0  0  0  0  0  0  0  0  0  0
    6.8519    2.5303    0.0000 C   0  0  0  0  0  0  0  0  0  0  0  0
    5.4931    2.0888    0.0000 C   0  0  0  0  0  0  0  0  0  0  0  0
    6.0451    2.7018    0.0000 C   0  0  0  0  0  0  0  0  0  0  0  0
    7.3513   -1.3356    0.0000 C   0  0  0  0  0  0  0  0  0  0  0  0
    4.6731    2.0867    0.0000 C   0  0  0  0  0  0  0  0  0  0  0  0
    4.4203    1.3065    0.0000 C   0  0  0  0  0  0  0  0  0  0  0  0
    9.8424   -1.8820    0.0000 C   0  0  0  0  0  0  0  0  0  0  0  0
    4.1108    2.7297    0.0000 C   0  0  0  0  0  0  0  0  0  0  0  0
   10.7403    0.1901    0.0000 C   0  0  0  0  0  0  0  0  0  0  0  0
    3.5877    1.1154    0.0000 C   0  0  0  0  0  0  0  0  0  0  0  0
    3.2741    2.5578    0.0000 C   0  0  0  0  0  0  0  0  0  0  0  0
    3.0108    1.7452    0.0000 C   0  0  0  0  0  0  0  0  0  0  0  0
    7.0380   -2.7297    0.0000 C   0  0  0  0  0  0  0  0  0  0  0  0
   11.5480    0.0217    0.0000 C   0  0  0  0  0  0  0  0  0  0  0  0
   12.0975    0.6369    0.0000 C   0  0  0  0  0  0  0  0  0  0  0  0
    1.6499    2.1803    0.0000 C   0  0  0  0  0  0  0  0  0  0  0  0
   12.9051    0.4684    0.0000 C   0  0  0  0  0  0  0  0  0  0  0  0
   13.4546    1.0836    0.0000 C   0  0  0  0  0  0  0  0  0  0  0  0
   13.1630   -0.3151    0.0000 C   0  0  0  0  0  0  0  0  0  0  0  0
   13.9706   -0.4836    0.0000 C   0  0  0  0  0  0  0  0  0  0  0  0
   14.2623    0.9151    0.0000 C   0  0  0  0  0  0  0  0  0  0  0  0
   14.5202    0.1317    0.0000 C   0  0  0  0  0  0  0  0  0  0  0  0
   13.6789   -1.8823    0.0000 C   0  0  0  0  0  0  0  0  0  0  0  0
   14.5539    2.3139    0.0000 C   0  0  0  0  0  0  0  0  0  0  0  0
   15.8774    0.5784    0.0000 C   0  0  0  0  0  0  0  0  0  0  0  0
    7.1996   -0.3590    0.0000 H   0  0  0  0  0  0  0  0  0  0  0  0
    8.6577    1.2605    0.0000 H   0  0  0  0  0  0  0  0  0  0  0  0
    6.1096    0.6457    0.0000 H   0  0  0  0  0  0  0  0  0  0  0  0
 19  1  1  6  0  0  0
  1 28  1  0  0  0  0
 20  2  1  1  0  0  0
  2 30  1  0  0  0  0
  3 25  1  0  0  0  0
  3 34  1  0  0  0  0
  4 25  2  0  0  0  0
  5 30  2  0  0  0  0
  6 33  1  0  0  0  0
  6 37  1  0  0  0  0
  7 41  1  0  0  0  0
  7 44  1  0  0  0  0
  8 42  1  0  0  0  0
  8 45  1  0  0  0  0
  9 43  1  0  0  0  0
  9 46  1  0  0  0  0
 10 16  1  0  0  0  0
 10 17  1  0  0  0  0
 10 22  1  0  0  0  0
 11 21  1  0  0  0  0
 11 27  1  0  0  0  0
 12 13  1  0  0  0  0
 12 14  1  0  0  0  0
 12 15  1  0  0  0  0
 12 47  1  6  0  0  0
 13 17  1  0  0  0  0
 13 18  1  0  0  0  0
 13 48  1  6  0  0  0
 14 16  1  0  0  0  0
 15 19  1  0  0  0  0
 15 25  1  1  0  0  0
 16 21  1  0  0  0  0
 16 49  1  1  0  0  0
 18 20  1  0  0  0  0
 19 20  1  0  0  0  0
 21 23  2  0  0  0  0
 22 24  1  0  0  0  0
 23 24  1  0  0  0  0
 23 26  1  0  0  0  0
 26 27  2  0  0  0  0
 26 29  1  0  0  0  0
 27 31  1  0  0  0  0
 29 32  2  0  0  0  0
 30 35  1  0  0  0  0
 31 33  2  0  0  0  0
 32 33  1  0  0  0  0
 35 36  2  3  0  0  0
 36 38  1  0  0  0  0
 38 39  2  0  0  0  0
 38 40  1  0  0  0  0
 39 42  1  0  0  0  0
 40 41  2  0  0  0  0
 41 43  1  0  0  0  0
 42 43  2  0  0  0  0
M  END
> <DATABASE_ID>
DB01180

> <DATABASE_NAME>
drugbank

> <SMILES>
[H][C@]12C[C@@H](OC(=O)C=CC3=CC(OC)=C(OC)C(OC)=C3)[C@H](OC)[C@@H](C(=O)OC)[C@@]1([H])C[C@@]1([H])N(CCC3=C1NC1=C3C=CC(OC)=C1)C2

> <INCHI_IDENTIFIER>
InChI=1S/C35H42N2O9/c1-40-21-8-9-22-23-11-12-37-18-20-15-29(46-30(38)10-7-19-13-27(41-2)33(43-4)28(14-19)42-3)34(44-5)31(35(39)45-6)24(20)17-26(37)32(23)36-25(22)16-21/h7-10,13-14,16,20,24,26,29,31,34,36H,11-12,15,17-18H2,1-6H3/t20-,24+,26-,29-,31+,34+/m1/s1

> <INCHI_KEY>
SZLZWPPUNLXJEA-LAFLMMDJSA-N

> <FORMULA>
C35H42N2O9

> <MOLECULAR_WEIGHT>
634.716

> <EXACT_MASS>
634.289030952

> <JCHEM_ACCEPTOR_COUNT>
8

> <JCHEM_ATOM_COUNT>
88

> <JCHEM_AVERAGE_NEUTRAL_MICROSPECIES_CHARGE>
0.7100652109257699

> <JCHEM_AVERAGE_POLARIZABILITY>
69.65863706589506

> <JCHEM_BIOAVAILABILITY>
0

> <JCHEM_DONOR_COUNT>
1

> <JCHEM_FORMAL_CHARGE>
0

> <JCHEM_GHOSE_FILTER>
0

> <JCHEM_IUPAC>
methyl (1R,15S,17R,18R,19S,20S)-6,18-dimethoxy-17-{[3-(3,4,5-trimethoxyphenyl)prop-2-enoyl]oxy}-3,13-diazapentacyclo[11.8.0.0^{2,10}.0^{4,9}.0^{15,20}]henicosa-2(10),4(9),5,7-tetraene-19-carboxylate

> <ALOGPS_LOGP>
4.48

> <JCHEM_LOGP>
4.070086811999998

> <ALOGPS_LOGS>
-5.26

> <JCHEM_MDDR_LIKE_RULE>
1

> <JCHEM_NEUTRAL_CHARGE>
1

> <JCHEM_NUMBER_OF_RINGS>
6

> <JCHEM_PHYSIOLOGICAL_CHARGE>
1

> <JCHEM_PKA_STRONGEST_ACIDIC>
16.290112706432037

> <JCHEM_PKA_STRONGEST_BASIC>
7.388997906586196

> <JCHEM_POLAR_SURFACE_AREA>
117.78

> <JCHEM_REFRACTIVITY>
171.16419999999994

> <JCHEM_ROTATABLE_BOND_COUNT>
11

> <JCHEM_RULE_OF_FIVE>
0

> <ALOGPS_SOLUBILITY>
3.49e-03 g/l

> <JCHEM_TRADITIONAL_IUPAC>
biotin

> <JCHEM_VEBER_RULE>
0

> <DRUGBANK_ID>
DB01180

> <SECONDARY_ACCESSION_NUMBERS>
APRD00112

> <DRUG_GROUPS>
approved

> <GENERIC_NAME>
Rescinnamine

> <SYNONYMS>
3,4,5-Trimethoxycinnamoyl methyl reserpate; Rescinnamine; Trimethoxy cinnamoyl reserpate de methyl

> <INTERNATIONAL_BRANDS>
Tsuruselpi S

$$$$

  Mrv1652310211600482D          

 42 46  0  0  0  0            999 V2000
   -1.1624    3.4358    0.0000 C   0  0  0  0  0  0  0  0  0  0  0  0
   -1.2486    2.6153    0.0000 C   0  0  0  0  0  0  0  0  0  0  0  0
   -0.5812    2.1304    0.0000 C   0  0  0  0  0  0  0  0  0  0  0  0
   -0.6674    1.3099    0.0000 C   0  0  0  0  0  0  0  0  0  0  0  0
    0.0000    0.8250    0.0000 C   0  0  0  0  0  0  0  0  0  0  0  0
    0.7846    1.0799    0.0000 N   0  0  0  0  0  0  0  0  0  0  0  0
    1.2695    0.4125    0.0000 C   0  0  0  0  0  0  0  0  0  0  0  0
    1.7545    1.0799    0.0000 C   0  0  0  0  0  0  0  0  0  0  0  0
    2.5391    0.8250    0.0000 C   0  0  0  0  0  0  0  0  0  0  0  0
    2.5391    0.0000    0.0000 C   0  0  0  0  0  0  0  0  0  0  0  0
    1.7545   -0.2549    0.0000 C   0  0  0  0  0  0  0  0  0  0  0  0
    0.7846   -0.2549    0.0000 C   0  0  0  0  0  0  0  0  0  0  0  0
    1.0396   -1.0396    0.0000 O   0  0  0  0  0  0  0  0  0  0  0  0
   -0.0000    0.0000    0.0000 N   0  0  0  0  0  0  0  0  0  0  0  0
   -0.6674   -0.4849    0.0000 C   0  0  0  0  0  0  0  0  0  0  0  0
   -0.5812   -1.3054    0.0000 C   0  0  0  0  0  0  0  0  0  0  0  0
    0.1725   -1.6410    0.0000 C   0  0  0  0  0  0  0  0  0  0  0  0
    0.2587   -2.4614    0.0000 C   0  0  0  0  0  0  0  0  0  0  0  0
   -0.4087   -2.9464    0.0000 C   0  0  0  0  0  0  0  0  0  0  0  0
   -1.1624   -2.6108    0.0000 C   0  0  0  0  0  0  0  0  0  0  0  0
   -1.2486   -1.7903    0.0000 C   0  0  0  0  0  0  0  0  0  0  0  0
   -1.8298   -3.0957    0.0000 C   0  0  0  0  0  0  0  0  0  0  0  0
   -2.5835   -2.7602    0.0000 O   0  0  0  0  0  0  0  0  0  0  0  0
   -3.2510   -3.2451    0.0000 C   0  0  0  0  0  0  0  0  0  0  0  0
   -4.0046   -2.9095    0.0000 C   0  0  0  0  0  0  0  0  0  0  0  0
   -0.3225   -3.7668    0.0000 C   0  0  0  0  0  0  0  0  0  0  0  0
   -0.9899   -4.2518    0.0000 C   0  0  0  0  0  0  0  0  0  0  0  0
   -0.9037   -5.0722    0.0000 C   0  0  0  0  0  0  0  0  0  0  0  0
   -0.1500   -5.4078    0.0000 C   0  0  0  0  0  0  0  0  0  0  0  0
    0.5174   -4.9229    0.0000 C   0  0  0  0  0  0  0  0  0  0  0  0
    0.4312   -4.1024    0.0000 C   0  0  0  0  0  0  0  0  0  0  0  0
    1.0986   -3.6175    0.0000 S   0  0  0  0  0  0  0  0  0  0  0  0
    1.7661   -3.1326    0.0000 O   0  0  0  0  0  0  0  0  0  0  0  0
    0.6137   -2.9500    0.0000 O   0  0  0  0  0  0  0  0  0  0  0  0
    1.5835   -4.2849    0.0000 N   0  0  0  0  0  0  0  0  0  0  0  0
    2.4040   -4.1987    0.0000 C   0  0  0  0  0  0  0  0  0  0  0  0
    2.9561   -4.8118    0.0000 C   0  0  0  0  0  0  0  0  0  0  0  0
    3.7097   -4.4762    0.0000 C   0  0  0  0  0  0  0  0  0  0  0  0
    3.6235   -3.6557    0.0000 O   0  0  0  0  0  0  0  0  0  0  0  0
    2.8165   -3.4842    0.0000 N   0  0  0  0  0  0  0  0  0  0  0  0
    4.4242   -4.8887    0.0000 C   0  0  0  0  0  0  0  0  0  0  0  0
    2.7845   -5.6187    0.0000 C   0  0  0  0  0  0  0  0  0  0  0  0
  1  2  1  0  0  0  0
  2  3  1  0  0  0  0
  3  4  1  0  0  0  0
  4  5  1  0  0  0  0
  5  6  2  0  0  0  0
  6  7  1  0  0  0  0
  7  8  1  0  0  0  0
  8  9  1  0  0  0  0
  9 10  1  0  0  0  0
 10 11  1  0  0  0  0
  7 11  1  0  0  0  0
  7 12  1  0  0  0  0
 12 13  2  0  0  0  0
 12 14  1  0  0  0  0
  5 14  1  0  0  0  0
 14 15  1  0  0  0  0
 15 16  1  0  0  0  0
 16 17  2  0  0  0  0
 17 18  1  0  0  0  0
 18 19  2  0  0  0  0
 19 20  1  0  0  0  0
 20 21  2  0  0  0  0
 16 21  1  0  0  0  0
 20 22  1  0  0  0  0
 22 23  1  0  0  0  0
 23 24  1  0  0  0  0
 24 25  1  0  0  0  0
 19 26  1  0  0  0  0
 26 27  2  0  0  0  0
 27 28  1  0  0  0  0
 28 29  2  0  0  0  0
 29 30  1  0  0  0  0
 30 31  2  0  0  0  0
 26 31  1  0  0  0  0
 31 32  1  0  0  0  0
 32 33  2  0  0  0  0
 32 34  2  0  0  0  0
 32 35  1  0  0  0  0
 35 36  1  0  0  0  0
 36 37  1  0  0  0  0
 37 38  2  0  0  0  0
 38 39  1  0  0  0  0
 39 40  1  0  0  0  0
 36 40  2  0  0  0  0
 38 41  1  0  0  0  0
 37 42  1  0  0  0  0
M  END
> <DATABASE_ID>
DB12548

> <DATABASE_NAME>
drugbank

> <SMILES>
CCCCC1=NC2(CCCC2)C(=O)N1CC1=CC=C(C(COCC)=C1)C1=CC=CC=C1S(=O)(=O)NC1=NOC(C)=C1C

> <INCHI_IDENTIFIER>
InChI=1S/C32H40N4O5S/c1-5-7-14-29-33-32(17-10-11-18-32)31(37)36(29)20-24-15-16-26(25(19-24)21-40-6-2)27-12-8-9-13-28(27)42(38,39)35-30-22(3)23(4)41-34-30/h8-9,12-13,15-16,19H,5-7,10-11,14,17-18,20-21H2,1-4H3,(H,34,35)

> <INCHI_KEY>
WRFHGDPIDHPWIQ-UHFFFAOYSA-N

> <FORMULA>
C32H40N4O5S

> <MOLECULAR_WEIGHT>
592.76

> <EXACT_MASS>
592.271941578

> <JCHEM_ACCEPTOR_COUNT>
6

> <JCHEM_ATOM_COUNT>
82

> <JCHEM_AVERAGE_POLARIZABILITY>
66.65371532080474

> <JCHEM_BIOAVAILABILITY>
0

> <JCHEM_DONOR_COUNT>
1

> <JCHEM_FORMAL_CHARGE>
0

> <JCHEM_GHOSE_FILTER>
0

> <JCHEM_IUPAC>
4'-({2-butyl-4-oxo-1,3-diazaspiro[4.4]non-1-en-3-yl}methyl)-N-(4,5-dimethyl-1,2-oxazol-3-yl)-2'-(ethoxymethyl)-[1,1'-biphenyl]-2-sulfonamide

> <ALOGPS_LOGP>
5.56

> <JCHEM_LOGP>
6.056118933999997

> <ALOGPS_LOGS>
-4.69

> <JCHEM_MDDR_LIKE_RULE>
1

> <JCHEM_NUMBER_OF_RINGS>
5

> <JCHEM_PHYSIOLOGICAL_CHARGE>
-1

> <JCHEM_PKA_STRONGEST_ACIDIC>
5.687915383735999

> <JCHEM_PKA_STRONGEST_BASIC>
3.5231724399615834

> <JCHEM_POLAR_SURFACE_AREA>
114.10000000000001

> <JCHEM_REFRACTIVITY>
164.44820000000007

> <JCHEM_ROTATABLE_BOND_COUNT>
11

> <JCHEM_RULE_OF_FIVE>
0

> <ALOGPS_SOLUBILITY>
1.22e-02 g/l

> <JCHEM_TRADITIONAL_IUPAC>
4'-({2-butyl-4-oxo-1,3-diazaspiro[4.4]non-1-en-3-yl}methyl)-N-(4,5-dimethyl-1,2-oxazol-3-yl)-2'-(ethoxymethyl)-[1,1'-biphenyl]-2-sulfonamide

> <JCHEM_VEBER_RULE>
0

> <DRUGBANK_ID>
DB12548

> <SECONDARY_ACCESSION_NUMBERS>
DB05206

> <DRUG_GROUPS>
approved; investigational

> <GENERIC_NAME>
Sparsentan

> <SYNONYMS>
Sparsentan

> <PRODUCTS>
Filspari

> <INTERNATIONAL_BRANDS>
Filspari

$$$$
